# AFLOW.org Repositories
# Be8Cl24Cs8
data_Be8Cl24Cs8
_pd_phase_name Be8Cl24Cs8
_cell_length_a  10.8937446248
_cell_length_b  11.3069830773
_cell_length_c  11.3196900200
_cell_angle_alpha  82.5530414527
_cell_angle_beta  87.4986771651
_cell_angle_gamma  87.9494727782
_symmetry_space_group_name_H-M  'P1'
_symmetry_Int_Tables_Number  1
loop_
_symmetry_equiv_pos_site_id
_symmetry_equiv_pos_as_xyz
  1  x,y,z
loop_
 _atom_site_label
 _atom_site_occupancy
 _atom_site_fract_x
 _atom_site_fract_y
 _atom_site_fract_z
 _atom_site_thermal_displace_type
 _atom_site_B_iso_or_equiv
 _atom_site_type_symbol
 _atom_site_symmetry_multiplicity
 _atom_site_Wyckoff_label
Be1 1.0000000000 0.1654474432 0.2057524180 0.1986055187  Biso 1.0 Be 1 a
Be2 1.0000000000 0.3257204929 0.1869503710 0.6932064468  Biso 1.0 Be 1 a
Be3 1.0000000000 0.6603319244 0.2877500282 0.1737504642  Biso 1.0 Be 1 a
Be4 1.0000000000 0.3428318871 0.6953844591 0.1883031359  Biso 1.0 Be 1 a
Be5 1.0000000000 0.8317560698 0.3246284788 0.7041956822  Biso 1.0 Be 1 a
Be6 1.0000000000 0.2733540773 0.6715280552 0.6524834267  Biso 1.0 Be 1 a
Be7 1.0000000000 0.8379269231 0.7915719111 0.3221628810  Biso 1.0 Be 1 a
Be8 1.0000000000 0.7676047270 0.8381334341 0.8220295215  Biso 1.0 Be 1 a
Cl9 1.0000000000 0.2270752243 0.2644957876 0.0403109436  Biso 1.0 Cl 1 a
Cl10 1.0000000000 0.2683094305 0.2527636151 0.5389840419  Biso 1.0 Cl 1 a
Cl11 1.0000000000 0.7289022754 0.2140439638 0.0410003584  Biso 1.0 Cl 1 a
Cl12 1.0000000000 0.2772446226 0.7643973048 0.0384282142  Biso 1.0 Cl 1 a
Cl13 1.0000000000 0.7967934077 0.2860279663 0.5477491091  Biso 1.0 Cl 1 a
Cl14 1.0000000000 0.1958547402 0.7707531462 0.5242435933  Biso 1.0 Cl 1 a
Cl15 1.0000000000 0.6756641479 0.7486104429 0.9497834478  Biso 1.0 Cl 1 a
Cl16 1.0000000000 0.7657624158 0.6989596059 0.4606687821  Biso 1.0 Cl 1 a
Cl17 1.0000000000 0.0310732180 0.2891663146 0.2708240946  Biso 1.0 Cl 1 a
Cl18 1.0000000000 0.9660144029 0.2408541265 0.7865945053  Biso 1.0 Cl 1 a
Cl19 1.0000000000 0.5353331197 0.2121719889 0.2794336298  Biso 1.0 Cl 1 a
Cl20 1.0000000000 0.9529541447 0.7184041521 0.2166681298  Biso 1.0 Cl 1 a
Cl21 1.0000000000 0.4591145498 0.2599714382 0.7597874733  Biso 1.0 Cl 1 a
Cl22 1.0000000000 0.9427894398 0.8082370396 0.8043477656  Biso 1.0 Cl 1 a
Cl23 1.0000000000 0.4718943926 0.7722057645 0.2571001038  Biso 1.0 Cl 1 a
Cl24 1.0000000000 0.4460659818 0.6878217799 0.6757387175  Biso 1.0 Cl 1 a
Cl25 1.0000000000 0.2131894662 0.0464130386 0.2665398877  Biso 1.0 Cl 1 a
Cl26 1.0000000000 0.2676642977 0.0342344847 0.7661135738  Biso 1.0 Cl 1 a
Cl27 1.0000000000 0.8082141282 0.9616688910 0.2979211777  Biso 1.0 Cl 1 a
Cl28 1.0000000000 0.2979633332 0.5363394777 0.2537703498  Biso 1.0 Cl 1 a
Cl29 1.0000000000 0.6931983555 0.9732397275 0.7272845236  Biso 1.0 Cl 1 a
Cl30 1.0000000000 0.1897368594 0.5406312508 0.7433445441  Biso 1.0 Cl 1 a
Cl31 1.0000000000 0.6948516378 0.4521841869 0.1843675150  Biso 1.0 Cl 1 a
Cl32 1.0000000000 0.7556487671 0.4656681060 0.7565518960  Biso 1.0 Cl 1 a
Cs33 1.0000000000 0.0119273975 0.9945598805 0.0241318854  Biso 1.0 Cs 1 a
Cs34 1.0000000000 0.0083011560 0.0412726149 0.5445119905  Biso 1.0 Cs 1 a
Cs35 1.0000000000 0.4832420204 0.0138292986 0.0101790540  Biso 1.0 Cs 1 a
Cs36 1.0000000000 0.9607096879 0.5013982298 0.9898270069  Biso 1.0 Cs 1 a
Cs37 1.0000000000 0.5036736182 0.9499004678 0.4829888684  Biso 1.0 Cs 1 a
Cs38 1.0000000000 0.0367945072 0.5071664289 0.4680916034  Biso 1.0 Cs 1 a
Cs39 1.0000000000 0.4662456390 0.4965756399 0.9426732403  Biso 1.0 Cs 1 a
Cs40 1.0000000000 0.5341135324 0.4664112198 0.4678098728  Biso 1.0 Cs 1 a
