# AFLOW.org Repositories
# Be4Br12Cs4
data_Be4Br12Cs4
_pd_phase_name Be4Br12Cs4
_cell_length_a  7.7698228460
_cell_length_b  11.1046427174
_cell_length_c  11.6432389319
_cell_angle_alpha  89.9967220873
_cell_angle_beta  126.6781434590
_cell_angle_gamma  90.0060219741
_symmetry_space_group_name_H-M  'P2_{1}/c'
_symmetry_Int_Tables_Number  14
loop_
_symmetry_equiv_pos_site_id
_symmetry_equiv_pos_as_xyz
  1  x,y,z
  2  -x,y+1/2,-z+1/2
  3  -x,-y,-z
  4  x,-y+1/2,z+1/2
loop_
 _atom_site_label
 _atom_site_occupancy
 _atom_site_fract_x
 _atom_site_fract_y
 _atom_site_fract_z
 _atom_site_thermal_displace_type
 _atom_site_B_iso_or_equiv
 _atom_site_type_symbol
 _atom_site_symmetry_multiplicity
 _atom_site_Wyckoff_label
Be1 1.0000000000 0.9550683755 0.3494973117 0.6256115868  Biso 1.0 Be 4 e
Br2 1.0000000000 0.1100607017 0.4770075762 0.7893314723  Biso 1.0 Br 4 e
Br3 1.0000000000 0.1210613581 0.2390037214 0.0617099362  Biso 1.0 Br 4 e
Br4 1.0000000000 0.6264207801 0.3178536171 0.5136388857  Biso 1.0 Br 4 e
Cs5 1.0000000000 0.6125792282 0.4559975874 0.8013679058  Biso 1.0 Cs 4 e
