# AFLOW.org Repositories
# Cl24Cs8Ge8
data_Cl24Cs8Ge8
_pd_phase_name Cl24Cs8Ge8
_cell_length_a  11.0937210867
_cell_length_b  11.1290885560
_cell_length_c  11.2388549043
_cell_angle_alpha  88.4218350490
_cell_angle_beta  89.9796287097
_cell_angle_gamma  89.9382167944
_symmetry_space_group_name_H-M  'P1'
_symmetry_Int_Tables_Number  1
loop_
_symmetry_equiv_pos_site_id
_symmetry_equiv_pos_as_xyz
  1  x,y,z
loop_
 _atom_site_label
 _atom_site_occupancy
 _atom_site_fract_x
 _atom_site_fract_y
 _atom_site_fract_z
 _atom_site_thermal_displace_type
 _atom_site_B_iso_or_equiv
 _atom_site_type_symbol
 _atom_site_symmetry_multiplicity
 _atom_site_Wyckoff_label
Cl1 1.0000000000 0.9624333065 0.2048035689 0.7303800717  Biso 1.0 Cl 1 a
Cl2 1.0000000000 0.4624529117 0.2989190390 0.7592821361  Biso 1.0 Cl 1 a
Cl3 1.0000000000 0.0192958664 0.2366056825 0.2592172464  Biso 1.0 Cl 1 a
Cl4 1.0000000000 0.0324470473 0.7965764228 0.7692304367  Biso 1.0 Cl 1 a
Cl5 1.0000000000 0.5196380592 0.2624857008 0.2339788382  Biso 1.0 Cl 1 a
Cl6 1.0000000000 0.5322092118 0.7052944320 0.7221926612  Biso 1.0 Cl 1 a
Cl7 1.0000000000 0.0259043177 0.7778050769 0.2380185615  Biso 1.0 Cl 1 a
Cl8 1.0000000000 0.5261871877 0.7250313225 0.2480379229  Biso 1.0 Cl 1 a
Cl9 1.0000000000 0.2304958044 0.2619506511 0.9716337432  Biso 1.0 Cl 1 a
Cl10 1.0000000000 0.7521966618 0.2386457083 0.0210381514  Biso 1.0 Cl 1 a
Cl11 1.0000000000 0.2534007956 0.2442317989 0.4704530407  Biso 1.0 Cl 1 a
Cl12 1.0000000000 0.2708337368 0.7452264549 0.9710491932  Biso 1.0 Cl 1 a
Cl13 1.0000000000 0.7332646237 0.2613041946 0.5185766635  Biso 1.0 Cl 1 a
Cl14 1.0000000000 0.7417097788 0.7622079852 0.0187628207  Biso 1.0 Cl 1 a
Cl15 1.0000000000 0.2420143091 0.7574707164 0.4687441312  Biso 1.0 Cl 1 a
Cl16 1.0000000000 0.7723519404 0.7390970306 0.5176517406  Biso 1.0 Cl 1 a
Cl17 1.0000000000 0.2926343527 0.9786347144 0.7508508672  Biso 1.0 Cl 1 a
Cl18 1.0000000000 0.7017888164 0.0240242544 0.7320254008  Biso 1.0 Cl 1 a
Cl19 1.0000000000 0.2723694495 0.9782880330 0.2384854641  Biso 1.0 Cl 1 a
Cl20 1.0000000000 0.1993814371 0.4788310908 0.7376771169  Biso 1.0 Cl 1 a
Cl21 1.0000000000 0.7306971009 0.0233784701 0.2565091497  Biso 1.0 Cl 1 a
Cl22 1.0000000000 0.7914527026 0.5223457492 0.7537864391  Biso 1.0 Cl 1 a
Cl23 1.0000000000 0.2297279727 0.4767666906 0.2533225611  Biso 1.0 Cl 1 a
Cl24 1.0000000000 0.7700241628 0.5234861288 0.2310015709  Biso 1.0 Cl 1 a
Cs25 1.0000000000 0.9974431847 0.0094450126 0.0022759307  Biso 1.0 Cs 1 a
Cs26 1.0000000000 0.5010879932 0.0074654554 0.9992853509  Biso 1.0 Cs 1 a
Cs27 1.0000000000 0.9936863890 0.9946561213 0.4917020052  Biso 1.0 Cs 1 a
Cs28 1.0000000000 0.0037160968 0.5100757133 0.9992352548  Biso 1.0 Cs 1 a
Cs29 1.0000000000 0.4923780054 0.9923907805 0.4871973135  Biso 1.0 Cs 1 a
Cs30 1.0000000000 0.5050729375 0.5070579139 0.9976863804  Biso 1.0 Cs 1 a
Cs31 1.0000000000 0.9916604575 0.4910963004 0.4877988912  Biso 1.0 Cs 1 a
Cs32 1.0000000000 0.4897153250 0.4935401597 0.4874911729  Biso 1.0 Cs 1 a
Ge33 1.0000000000 0.2482294904 0.2698977423 0.7586169807  Biso 1.0 Ge 1 a
Ge34 1.0000000000 0.7479795954 0.2341746699 0.7305587217  Biso 1.0 Ge 1 a
Ge35 1.0000000000 0.2349881157 0.2603180897 0.2582389910  Biso 1.0 Ge 1 a
Ge36 1.0000000000 0.2465828959 0.7686960657 0.7593213285  Biso 1.0 Ge 1 a
Ge37 1.0000000000 0.7351476959 0.2390913336 0.2340439424  Biso 1.0 Ge 1 a
Ge38 1.0000000000 0.7464496111 0.7318594853 0.7297693828  Biso 1.0 Ge 1 a
Ge39 1.0000000000 0.2412432413 0.7648243337 0.2551644999  Biso 1.0 Ge 1 a
Ge40 1.0000000000 0.7415440484 0.7377632515 0.2313463614  Biso 1.0 Ge 1 a
