# AFLOW.org Repositories
# Br24Cs8Ge8
data_Br24Cs8Ge8
_pd_phase_name Br24Cs8Ge8
_cell_length_a  11.5869669298
_cell_length_b  11.6007414814
_cell_length_c  11.6038631683
_cell_angle_alpha  90.0146575112
_cell_angle_beta  89.9197102608
_cell_angle_gamma  89.8192943468
_symmetry_space_group_name_H-M  'P1'
_symmetry_Int_Tables_Number  1
loop_
_symmetry_equiv_pos_site_id
_symmetry_equiv_pos_as_xyz
  1  x,y,z
loop_
 _atom_site_label
 _atom_site_occupancy
 _atom_site_fract_x
 _atom_site_fract_y
 _atom_site_fract_z
 _atom_site_thermal_displace_type
 _atom_site_B_iso_or_equiv
 _atom_site_type_symbol
 _atom_site_symmetry_multiplicity
 _atom_site_Wyckoff_label
Br1 1.0000000000 0.7331274080 0.7698729741 0.0123734883  Biso 1.0 Br 1 a
Br2 1.0000000000 0.7508509442 0.7340846605 0.5128669929  Biso 1.0 Br 1 a
Br3 1.0000000000 0.7127652167 0.2155593423 0.0219518385  Biso 1.0 Br 1 a
Br4 1.0000000000 0.2684807286 0.7320151816 0.0168920689  Biso 1.0 Br 1 a
Br5 1.0000000000 0.7751250380 0.2880432784 0.5226258023  Biso 1.0 Br 1 a
Br6 1.0000000000 0.2156226656 0.7813754730 0.5175899688  Biso 1.0 Br 1 a
Br7 1.0000000000 0.2603971472 0.2608575548 0.0131647379  Biso 1.0 Br 1 a
Br8 1.0000000000 0.2264894620 0.2523394106 0.5127233376  Biso 1.0 Br 1 a
Br9 1.0000000000 0.7264978175 0.9869737996 0.7250170364  Biso 1.0 Br 1 a
Br10 1.0000000000 0.7520440489 0.0183132252 0.2810707334  Biso 1.0 Br 1 a
Br11 1.0000000000 0.7520086880 0.4881996939 0.7816535271  Biso 1.0 Br 1 a
Br12 1.0000000000 0.2347804226 0.9922370320 0.7684223720  Biso 1.0 Br 1 a
Br13 1.0000000000 0.7314838718 0.5192470246 0.2265875929  Biso 1.0 Br 1 a
Br14 1.0000000000 0.2149901732 0.0233726174 0.2369782478  Biso 1.0 Br 1 a
Br15 1.0000000000 0.2427500836 0.4921971983 0.7371760363  Biso 1.0 Br 1 a
Br16 1.0000000000 0.2697233303 0.5229196685 0.2677246252  Biso 1.0 Br 1 a
Br17 1.0000000000 0.0053393994 0.7585184189 0.7701173420  Biso 1.0 Br 1 a
Br18 1.0000000000 0.9749844186 0.7403848764 0.2319067945  Biso 1.0 Br 1 a
Br19 1.0000000000 0.9751799927 0.2466014217 0.7780302972  Biso 1.0 Br 1 a
Br20 1.0000000000 0.5060950452 0.7446111529 0.7350715505  Biso 1.0 Br 1 a
Br21 1.0000000000 0.0094552834 0.2784755638 0.2288595438  Biso 1.0 Br 1 a
Br22 1.0000000000 0.4764538736 0.7775965906 0.2653800130  Biso 1.0 Br 1 a
Br23 1.0000000000 0.4737582282 0.2579215002 0.7279201574  Biso 1.0 Br 1 a
Br24 1.0000000000 0.5088929148 0.2408370877 0.2792058668  Biso 1.0 Br 1 a
Cs25 1.0000000000 0.9813794966 0.0031316866 0.0037836983  Biso 1.0 Cs 1 a
Cs26 1.0000000000 0.9862807550 0.0169347227 0.5060455490  Biso 1.0 Cs 1 a
Cs27 1.0000000000 0.0026315153 0.5090271539 0.9956351307  Biso 1.0 Cs 1 a
Cs28 1.0000000000 0.4796900792 0.9928470668 0.9963295700  Biso 1.0 Cs 1 a
Cs29 1.0000000000 0.0039088585 0.5162405167 0.4908508882  Biso 1.0 Cs 1 a
Cs30 1.0000000000 0.4820832185 0.0028203766 0.5040283852  Biso 1.0 Cs 1 a
Cs31 1.0000000000 0.4967617060 0.4946990103 0.9951289987  Biso 1.0 Cs 1 a
Cs32 1.0000000000 0.5032160641 0.5007728534 0.4982897184  Biso 1.0 Cs 1 a
Ge33 1.0000000000 0.7272607009 0.7652752895 0.7301095876  Biso 1.0 Ge 1 a
Ge34 1.0000000000 0.7521704115 0.7394841867 0.2300226386  Biso 1.0 Ge 1 a
Ge35 1.0000000000 0.7583830051 0.2712909753 0.7424747206  Biso 1.0 Ge 1 a
Ge36 1.0000000000 0.2238928175 0.7735307106 0.7384502138  Biso 1.0 Ge 1 a
Ge37 1.0000000000 0.7268678095 0.2339178930 0.2418446812  Biso 1.0 Ge 1 a
Ge38 1.0000000000 0.2605244989 0.7416746050 0.2376844805  Biso 1.0 Ge 1 a
Ge39 1.0000000000 0.2517517058 0.2712429537 0.7310422250  Biso 1.0 Ge 1 a
Ge40 1.0000000000 0.2284217359 0.2442987708 0.2311067312  Biso 1.0 Ge 1 a
