# AFLOW.org Repositories
# Cl24Cs8Sn8
data_Cl24Cs8Sn8
_pd_phase_name Cl24Cs8Sn8
_cell_length_a  11.4000813371
_cell_length_b  11.4402388847
_cell_length_c  11.4582971920
_cell_angle_alpha  89.4785512004
_cell_angle_beta  89.8014748112
_cell_angle_gamma  89.9122834103
_symmetry_space_group_name_H-M  'P1'
_symmetry_Int_Tables_Number  1
loop_
_symmetry_equiv_pos_site_id
_symmetry_equiv_pos_as_xyz
  1  x,y,z
loop_
 _atom_site_label
 _atom_site_occupancy
 _atom_site_fract_x
 _atom_site_fract_y
 _atom_site_fract_z
 _atom_site_thermal_displace_type
 _atom_site_B_iso_or_equiv
 _atom_site_type_symbol
 _atom_site_symmetry_multiplicity
 _atom_site_Wyckoff_label
Cl1 1.0000000000 0.7878235321 0.0097264056 0.2243771145  Biso 1.0 Cl 1 a
Cl2 1.0000000000 0.7063785566 0.5081766645 0.2991392839  Biso 1.0 Cl 1 a
Cl3 1.0000000000 0.6982582673 0.9674110111 0.8024994723  Biso 1.0 Cl 1 a
Cl4 1.0000000000 0.2040730059 0.9607136541 0.2239013122  Biso 1.0 Cl 1 a
Cl5 1.0000000000 0.7819788850 0.4670904780 0.7284989555  Biso 1.0 Cl 1 a
Cl6 1.0000000000 0.2877887619 0.4600597041 0.3030410900  Biso 1.0 Cl 1 a
Cl7 1.0000000000 0.2783440380 0.0095921726 0.8023864285  Biso 1.0 Cl 1 a
Cl8 1.0000000000 0.2015304294 0.5100588496 0.7225511594  Biso 1.0 Cl 1 a
Cl9 1.0000000000 0.7760421038 0.7010815293 0.0391634534  Biso 1.0 Cl 1 a
Cl10 1.0000000000 0.7058085092 0.2776825610 0.9883230548  Biso 1.0 Cl 1 a
Cl11 1.0000000000 0.6983714102 0.7718758497 0.5376454440  Biso 1.0 Cl 1 a
Cl12 1.0000000000 0.1990079675 0.6896152364 0.0346146870  Biso 1.0 Cl 1 a
Cl13 1.0000000000 0.7860930829 0.2063136421 0.4877184883  Biso 1.0 Cl 1 a
Cl14 1.0000000000 0.2883981288 0.2651929149 0.0408868649  Biso 1.0 Cl 1 a
Cl15 1.0000000000 0.2770321491 0.7718833934 0.5348847901  Biso 1.0 Cl 1 a
Cl16 1.0000000000 0.2050734211 0.1953190053 0.5411999603  Biso 1.0 Cl 1 a
Cl17 1.0000000000 0.9672252922 0.7099951609 0.3074126107  Biso 1.0 Cl 1 a
Cl18 1.0000000000 0.9773070209 0.2815798267 0.2315475584  Biso 1.0 Cl 1 a
Cl19 1.0000000000 0.9626903259 0.7831331931 0.7350720190  Biso 1.0 Cl 1 a
Cl20 1.0000000000 0.4659196262 0.7591324916 0.2163703596  Biso 1.0 Cl 1 a
Cl21 1.0000000000 0.9699584765 0.2074453468 0.8107385393  Biso 1.0 Cl 1 a
Cl22 1.0000000000 0.4771378736 0.1850173523 0.2969756105  Biso 1.0 Cl 1 a
Cl23 1.0000000000 0.4643775824 0.6933514498 0.7921182542  Biso 1.0 Cl 1 a
Cl24 1.0000000000 0.4692965719 0.2667887499 0.7210516877  Biso 1.0 Cl 1 a
Cs25 1.0000000000 0.9925024844 0.9574366580 0.9953933845  Biso 1.0 Cs 1 a
Cs26 1.0000000000 0.9836254242 0.4699706837 0.9844764997  Biso 1.0 Cs 1 a
Cs27 1.0000000000 0.9910678750 0.9706387065 0.4841241316  Biso 1.0 Cs 1 a
Cs28 1.0000000000 0.4922973345 0.0111115126 0.0331285151  Biso 1.0 Cs 1 a
Cs29 1.0000000000 0.9929119522 0.4603860366 0.4943197266  Biso 1.0 Cs 1 a
Cs30 1.0000000000 0.4904380218 0.5029115659 0.0403296741  Biso 1.0 Cs 1 a
Cs31 1.0000000000 0.4873991657 0.0043977844 0.5489980001  Biso 1.0 Cs 1 a
Cs32 1.0000000000 0.4918230289 0.5143617334 0.5326744257  Biso 1.0 Cs 1 a
Sn33 1.0000000000 0.7417912582 0.7323801769 0.2649600424  Biso 1.0 Sn 1 a
Sn34 1.0000000000 0.7537537870 0.2340013594 0.2614765792  Biso 1.0 Sn 1 a
Sn35 1.0000000000 0.7364207441 0.7443768516 0.7627088063  Biso 1.0 Sn 1 a
Sn36 1.0000000000 0.2391891890 0.7349243971 0.2549513692  Biso 1.0 Sn 1 a
Sn37 1.0000000000 0.7462140811 0.2416322297 0.7660377139  Biso 1.0 Sn 1 a
Sn38 1.0000000000 0.2544391085 0.2356599148 0.2663318716  Biso 1.0 Sn 1 a
Sn39 1.0000000000 0.2398507442 0.7333828834 0.7586975300  Biso 1.0 Sn 1 a
Sn40 1.0000000000 0.2445711123 0.2344420666 0.7638619487  Biso 1.0 Sn 1 a
