# AFLOW.org Repositories
# Cs4F12Sn4
data_Cs4F12Sn4
_pd_phase_name Cs4F12Sn4
_cell_length_a  6.7610748616
_cell_length_b  6.8094035634
_cell_length_c  6.8750837702
_cell_angle_alpha  64.0704232398
_cell_angle_beta  64.0611770081
_cell_angle_gamma  64.5839383497
_symmetry_space_group_name_H-M  'P1'
_symmetry_Int_Tables_Number  1
loop_
_symmetry_equiv_pos_site_id
_symmetry_equiv_pos_as_xyz
  1  x,y,z
loop_
 _atom_site_label
 _atom_site_occupancy
 _atom_site_fract_x
 _atom_site_fract_y
 _atom_site_fract_z
 _atom_site_thermal_displace_type
 _atom_site_B_iso_or_equiv
 _atom_site_type_symbol
 _atom_site_symmetry_multiplicity
 _atom_site_Wyckoff_label
Cs1 1.0000000000 0.9914553153 0.9994638737 0.0007897636  Biso 1.0 Cs 1 a
Cs2 1.0000000000 0.4896529603 0.5026736096 0.4982025810  Biso 1.0 Cs 1 a
F3 1.0000000000 0.3658928375 0.5382499894 0.0864883454  Biso 1.0 F 1 a
F4 1.0000000000 0.0251554458 0.8735345881 0.5933380958  Biso 1.0 F 1 a
F5 1.0000000000 0.5675827896 0.0413516789 0.8734434844  Biso 1.0 F 1 a
F6 1.0000000000 0.0705679234 0.3700725402 0.5472353926  Biso 1.0 F 1 a
F7 1.0000000000 0.5288544098 0.0778502313 0.3753568404  Biso 1.0 F 1 a
F8 1.0000000000 0.8537338426 0.5817041507 0.0470215889  Biso 1.0 F 1 a
Sn9 1.0000000000 0.2404552359 0.2528149403 0.2585204640  Biso 1.0 Sn 1 a
Sn10 1.0000000000 0.7485955733 0.7479560999 0.7559037785  Biso 1.0 Sn 1 a
