# AFLOW.org Repositories
# Cs4I12Sr4
data_Cs4I12Sr4
_pd_phase_name Cs4I12Sr4
_cell_length_a  9.1728696307
_cell_length_b  12.7176581765
_cell_length_c  8.8699943951
_cell_angle_alpha  90.0001225798
_cell_angle_beta  89.9961288226
_cell_angle_gamma  89.9884662125
_symmetry_space_group_name_H-M  'Pnma'
_symmetry_Int_Tables_Number  62
loop_
_symmetry_equiv_pos_site_id
_symmetry_equiv_pos_as_xyz
  1  x,y,z
  2  -x+1/2,-y,z+1/2
  3  -x,y+1/2,-z
  4  x+1/2,-y+1/2,-z+1/2
  5  -x,-y,-z
  6  x+1/2,y,-z+1/2
  7  x,-y+1/2,z
  8  -x+1/2,y+1/2,z+1/2
loop_
 _atom_site_label
 _atom_site_occupancy
 _atom_site_fract_x
 _atom_site_fract_y
 _atom_site_fract_z
 _atom_site_thermal_displace_type
 _atom_site_B_iso_or_equiv
 _atom_site_type_symbol
 _atom_site_symmetry_multiplicity
 _atom_site_Wyckoff_label
Cs1 1.0000000000 0.0682615991 0.2490198869 0.5218157806  Biso 1.0 Cs 4 c
I2 1.0000000000 0.2021431147 0.9543557267 0.3014299204  Biso 1.0 I 8 d
I3 1.0000000000 0.9822236154 0.2491553298 0.0906454124  Biso 1.0 I 4 c
Sr4 1.0000000000 0.0004817128 0.0001468604 0.0003609492  Biso 1.0 Sr 4 a
