# AFLOW.org Repositories
# Br24Cs8Sr8
data_Br24Cs8Sr8
_pd_phase_name Br24Cs8Sr8
_cell_length_a  8.5111759501
_cell_length_b  11.8734883863
_cell_length_c  8.3796942206
_cell_angle_alpha  89.9599698501
_cell_angle_beta  90.1078748029
_cell_angle_gamma  90.2251651154
_symmetry_space_group_name_H-M  'Pnma'
_symmetry_Int_Tables_Number  62
loop_
_symmetry_equiv_pos_site_id
_symmetry_equiv_pos_as_xyz
  1  x,y,z
  2  -x+1/2,-y,z+1/2
  3  -x,y+1/2,-z
  4  x+1/2,-y+1/2,-z+1/2
  5  -x,-y,-z
  6  x+1/2,y,-z+1/2
  7  x,-y+1/2,z
  8  -x+1/2,y+1/2,z+1/2
loop_
 _atom_site_label
 _atom_site_occupancy
 _atom_site_fract_x
 _atom_site_fract_y
 _atom_site_fract_z
 _atom_site_thermal_displace_type
 _atom_site_B_iso_or_equiv
 _atom_site_type_symbol
 _atom_site_symmetry_multiplicity
 _atom_site_Wyckoff_label
Br1 1.0000000000 0.5241500090 0.2507237341 0.4186855912  Biso 1.0 Br 4 c
Br2 1.0000000000 0.2172472785 0.4591604350 0.7162452672  Biso 1.0 Br 8 d
Cs3 1.0000000000 0.9598039940 0.2509185455 0.5127014843  Biso 1.0 Cs 4 c
Sr4 1.0000000000 0.9991711448 0.9997682798 0.0002352137  Biso 1.0 Sr 4 a
