# AFLOW.org Repositories
# Cs8F24Sr8
data_Cs8F24Sr8
_pd_phase_name Cs8F24Sr8
_cell_length_a  6.7246063601
_cell_length_b  6.7507501613
_cell_length_c  6.7560998862
_cell_angle_alpha  90.4743956996
_cell_angle_beta  119.6615681921
_cell_angle_gamma  118.9488352017
_symmetry_space_group_name_H-M  'P-1'
_symmetry_Int_Tables_Number  2
loop_
_symmetry_equiv_pos_site_id
_symmetry_equiv_pos_as_xyz
  1  x,y,z
  2  -x,-y,-z
loop_
 _atom_site_label
 _atom_site_occupancy
 _atom_site_fract_x
 _atom_site_fract_y
 _atom_site_fract_z
 _atom_site_thermal_displace_type
 _atom_site_B_iso_or_equiv
 _atom_site_type_symbol
 _atom_site_symmetry_multiplicity
 _atom_site_Wyckoff_label
Cs1 1.0000000000 0.5228568056 0.2577551971 0.2566089689  Biso 1.0 Cs 2 i
F2 1.0000000000 0.9943229918 0.2057279186 0.2057125024  Biso 1.0 F 2 i
F3 1.0000000000 0.5100660589 0.7383866460 0.2608873297  Biso 1.0 F 2 i
F4 1.0000000000 0.0080800845 0.2898293577 0.7111702334  Biso 1.0 F 2 i
Sr5 1.0000000000 0.0090419695 0.5020842723 0.0034321712  Biso 1.0 Sr 1 c
Sr6 1.0000000000 0.9989059769 0.9978960768 0.5000610480  Biso 1.0 Sr 1 b
