# AFLOW.org Repositories
# Be8Cl24K8
data_Be8Cl24K8
_pd_phase_name Be8Cl24K8
_cell_length_a  12.0510151600
_cell_length_b  10.0474506929
_cell_length_c  10.1406370911
_cell_angle_alpha  87.0291233697
_cell_angle_beta  87.5762936067
_cell_angle_gamma  89.4733043309
_symmetry_space_group_name_H-M  'P1'
_symmetry_Int_Tables_Number  1
loop_
_symmetry_equiv_pos_site_id
_symmetry_equiv_pos_as_xyz
  1  x,y,z
loop_
 _atom_site_label
 _atom_site_occupancy
 _atom_site_fract_x
 _atom_site_fract_y
 _atom_site_fract_z
 _atom_site_thermal_displace_type
 _atom_site_B_iso_or_equiv
 _atom_site_type_symbol
 _atom_site_symmetry_multiplicity
 _atom_site_Wyckoff_label
Be1 1.0000000000 0.7641586341 0.4604487397 0.2896871565  Biso 1.0 Be 1 a
Be2 1.0000000000 0.2502164197 0.0944281034 0.1851243030  Biso 1.0 Be 1 a
Be3 1.0000000000 0.7305146777 0.2581532340 0.8067439222  Biso 1.0 Be 1 a
Be4 1.0000000000 0.7392638837 0.8299801928 0.3082134536  Biso 1.0 Be 1 a
Be5 1.0000000000 0.2453978813 0.3773569428 0.6976047355  Biso 1.0 Be 1 a
Be6 1.0000000000 0.2461698622 0.6234045603 0.1720077768  Biso 1.0 Be 1 a
Be7 1.0000000000 0.7698130970 0.5298014913 0.8358590524  Biso 1.0 Be 1 a
Be8 1.0000000000 0.2528212611 0.8197125950 0.6395627254  Biso 1.0 Be 1 a
Cl9 1.0000000000 0.9025680202 0.3697756596 0.3242510688  Biso 1.0 Cl 1 a
Cl10 1.0000000000 0.4075541425 0.1180906297 0.1400142463  Biso 1.0 Cl 1 a
Cl11 1.0000000000 0.0885708645 0.3412509620 0.6863214439  Biso 1.0 Cl 1 a
Cl12 1.0000000000 0.0987137510 0.7002927225 0.1679525905  Biso 1.0 Cl 1 a
Cl13 1.0000000000 0.5707452797 0.2192498297 0.8157231215  Biso 1.0 Cl 1 a
Cl14 1.0000000000 0.5902483873 0.8068269229 0.3958340533  Biso 1.0 Cl 1 a
Cl15 1.0000000000 0.9084531961 0.6326872406 0.8355277658  Biso 1.0 Cl 1 a
Cl16 1.0000000000 0.3897447163 0.8896215392 0.6994811609  Biso 1.0 Cl 1 a
Cl17 1.0000000000 0.7727153257 0.3645125391 0.9729933863  Biso 1.0 Cl 1 a
Cl18 1.0000000000 0.1414673323 0.1202352077 0.0518577501  Biso 1.0 Cl 1 a
Cl19 1.0000000000 0.6201657775 0.3873462518 0.3353601326  Biso 1.0 Cl 1 a
Cl20 1.0000000000 0.6287737931 0.6330121412 0.8572368288  Biso 1.0 Cl 1 a
Cl21 1.0000000000 0.3522226199 0.3223388897 0.5658953127  Biso 1.0 Cl 1 a
Cl22 1.0000000000 0.3782461291 0.7170894513 0.1135498270  Biso 1.0 Cl 1 a
Cl23 1.0000000000 0.8615915199 0.8499332742 0.4316404228  Biso 1.0 Cl 1 a
Cl24 1.0000000000 0.2619127104 0.6784729685 0.5175350281  Biso 1.0 Cl 1 a
Cl25 1.0000000000 0.7441665634 0.9629852883 0.1549753579  Biso 1.0 Cl 1 a
Cl26 1.0000000000 0.2096792472 0.0444113713 0.3658928196  Biso 1.0 Cl 1 a
Cl27 1.0000000000 0.8289321698 0.1029415215 0.7798755882  Biso 1.0 Cl 1 a
Cl28 1.0000000000 0.7765489149 0.6390285522 0.2035861108  Biso 1.0 Cl 1 a
Cl29 1.0000000000 0.1089953621 0.8843583570 0.6991007723  Biso 1.0 Cl 1 a
Cl30 1.0000000000 0.2532581300 0.4359997158 0.2226225666  Biso 1.0 Cl 1 a
Cl31 1.0000000000 0.7638510044 0.4192207804 0.6665911305  Biso 1.0 Cl 1 a
Cl32 1.0000000000 0.2913389821 0.4756910392 0.8444213978  Biso 1.0 Cl 1 a
K33 1.0000000000 0.9632785019 0.9027830814 0.9820584878  Biso 1.0 K 1 a
K34 1.0000000000 0.5493184770 0.9227168041 0.9545682225  Biso 1.0 K 1 a
K35 1.0000000000 0.9798395951 0.1104227893 0.5158985138  Biso 1.0 K 1 a
K36 1.0000000000 0.0504208036 0.4201771435 0.0146869660  Biso 1.0 K 1 a
K37 1.0000000000 0.4721000743 0.0773086949 0.4452048204  Biso 1.0 K 1 a
K38 1.0000000000 0.4880455955 0.4217729547 0.0516921868  Biso 1.0 K 1 a
K39 1.0000000000 0.0072104071 0.6100882829 0.5171048674  Biso 1.0 K 1 a
K40 1.0000000000 0.5084479488 0.5714329900 0.5912892602  Biso 1.0 K 1 a
