# AFLOW.org Repositories
# Br12Ca4K4
data_Br12Ca4K4
_pd_phase_name Br12Ca4K4
_cell_length_a  8.0768819037
_cell_length_b  11.1107250010
_cell_length_c  7.7102032430
_cell_angle_alpha  90.0194332683
_cell_angle_beta  90.0211323847
_cell_angle_gamma  90.0049001804
_symmetry_space_group_name_H-M  'Pnma'
_symmetry_Int_Tables_Number  62
loop_
_symmetry_equiv_pos_site_id
_symmetry_equiv_pos_as_xyz
  1  x,y,z
  2  -x+1/2,-y,z+1/2
  3  -x,y+1/2,-z
  4  x+1/2,-y+1/2,-z+1/2
  5  -x,-y,-z
  6  x+1/2,y,-z+1/2
  7  x,-y+1/2,z
  8  -x+1/2,y+1/2,z+1/2
loop_
 _atom_site_label
 _atom_site_occupancy
 _atom_site_fract_x
 _atom_site_fract_y
 _atom_site_fract_z
 _atom_site_thermal_displace_type
 _atom_site_B_iso_or_equiv
 _atom_site_type_symbol
 _atom_site_symmetry_multiplicity
 _atom_site_Wyckoff_label
Br1 1.0000000000 0.7009822368 0.0558203197 0.8042912113  Biso 1.0 Br 8 d
Br2 1.0000000000 0.5307711315 0.2499072621 0.3939584572  Biso 1.0 Br 4 c
Ca3 1.0000000000 0.9999475140 0.0000569442 0.0010799089  Biso 1.0 Ca 4 a
K4 1.0000000000 0.9266806750 0.2486978077 0.5253306027  Biso 1.0 K 4 c
