# AFLOW.org Repositories
# Ca4I12K4
data_Ca4I12K4
_pd_phase_name Ca4I12K4
_cell_length_a  8.7341408873
_cell_length_b  11.9546611673
_cell_length_c  8.2385222600
_cell_angle_alpha  89.9346363174
_cell_angle_beta  89.9943685281
_cell_angle_gamma  89.9742527184
_symmetry_space_group_name_H-M  'Pnma'
_symmetry_Int_Tables_Number  62
loop_
_symmetry_equiv_pos_site_id
_symmetry_equiv_pos_as_xyz
  1  x,y,z
  2  -x+1/2,-y,z+1/2
  3  -x,y+1/2,-z
  4  x+1/2,-y+1/2,-z+1/2
  5  -x,-y,-z
  6  x+1/2,y,-z+1/2
  7  x,-y+1/2,z
  8  -x+1/2,y+1/2,z+1/2
loop_
 _atom_site_label
 _atom_site_occupancy
 _atom_site_fract_x
 _atom_site_fract_y
 _atom_site_fract_z
 _atom_site_thermal_displace_type
 _atom_site_B_iso_or_equiv
 _atom_site_type_symbol
 _atom_site_symmetry_multiplicity
 _atom_site_Wyckoff_label
Ca1 1.0000000000 0.9998296753 0.0006972551 0.0007248918  Biso 1.0 Ca 4 a
I2 1.0000000000 0.5295954722 0.2497311162 0.3854094754  Biso 1.0 I 4 c
I3 1.0000000000 0.1948301840 0.4421028517 0.6893853693  Biso 1.0 I 8 d
K4 1.0000000000 0.9136042200 0.2514066900 0.5341301593  Biso 1.0 K 4 c
