# AFLOW.org Repositories
# Br12K4Mg4
data_Br12K4Mg4
_pd_phase_name Br12K4Mg4
_cell_length_a  7.5827022520
_cell_length_b  10.5957825336
_cell_length_c  7.4253925729
_cell_angle_alpha  89.9980895516
_cell_angle_beta  89.9863364923
_cell_angle_gamma  90.0006305310
_symmetry_space_group_name_H-M  'Pnma'
_symmetry_Int_Tables_Number  62
loop_
_symmetry_equiv_pos_site_id
_symmetry_equiv_pos_as_xyz
  1  x,y,z
  2  -x+1/2,-y,z+1/2
  3  -x,y+1/2,-z
  4  x+1/2,-y+1/2,-z+1/2
  5  -x,-y,-z
  6  x+1/2,y,-z+1/2
  7  x,-y+1/2,z
  8  -x+1/2,y+1/2,z+1/2
loop_
 _atom_site_label
 _atom_site_occupancy
 _atom_site_fract_x
 _atom_site_fract_y
 _atom_site_fract_z
 _atom_site_thermal_displace_type
 _atom_site_B_iso_or_equiv
 _atom_site_type_symbol
 _atom_site_symmetry_multiplicity
 _atom_site_Wyckoff_label
Br1 1.0000000000 0.9906686384 0.2502558096 0.0775886485  Biso 1.0 Br 4 c
Br2 1.0000000000 0.2952332875 0.0397855739 0.7952408754  Biso 1.0 Br 8 d
K3 1.0000000000 0.0617764278 0.2506337647 0.5174106473  Biso 1.0 K 4 c
Mg4 1.0000000000 0.0004739071 0.0005335495 0.9997209712  Biso 1.0 Mg 4 a
