# AFLOW.org Repositories
# Cl12K4Sr4
data_Cl12K4Sr4
_pd_phase_name Cl12K4Sr4
_cell_length_a  7.9588835185
_cell_length_b  10.9119359757
_cell_length_c  7.5691360313
_cell_angle_alpha  90.0317855536
_cell_angle_beta  90.0924423367
_cell_angle_gamma  89.9872686667
_symmetry_space_group_name_H-M  'Pnma'
_symmetry_Int_Tables_Number  62
loop_
_symmetry_equiv_pos_site_id
_symmetry_equiv_pos_as_xyz
  1  x,y,z
  2  -x+1/2,-y,z+1/2
  3  -x,y+1/2,-z
  4  x+1/2,-y+1/2,-z+1/2
  5  -x,-y,-z
  6  x+1/2,y,-z+1/2
  7  x,-y+1/2,z
  8  -x+1/2,y+1/2,z+1/2
loop_
 _atom_site_label
 _atom_site_occupancy
 _atom_site_fract_x
 _atom_site_fract_y
 _atom_site_fract_z
 _atom_site_thermal_displace_type
 _atom_site_B_iso_or_equiv
 _atom_site_type_symbol
 _atom_site_symmetry_multiplicity
 _atom_site_Wyckoff_label
Cl1 1.0000000000 0.2993531052 0.0676326574 0.1954858365  Biso 1.0 Cl 8 d
Cl2 1.0000000000 0.9482973687 0.2500566621 0.8775029554  Biso 1.0 Cl 4 c
K3 1.0000000000 0.0682563932 0.2506716043 0.4758048082  Biso 1.0 K 4 c
Sr4 1.0000000000 0.9990575302 0.0011439144 0.9996586816  Biso 1.0 Sr 4 a
