# AFLOW.org Repositories
# F24K8Sr8
data_F24K8Sr8
_pd_phase_name F24K8Sr8
_cell_length_a  6.6190986700
_cell_length_b  9.2024590670
_cell_length_c  6.4241014232
_cell_angle_alpha  90.0805485580
_cell_angle_beta  89.7566630581
_cell_angle_gamma  89.9218243870
_symmetry_space_group_name_H-M  'Pnma'
_symmetry_Int_Tables_Number  62
loop_
_symmetry_equiv_pos_site_id
_symmetry_equiv_pos_as_xyz
  1  x,y,z
  2  -x+1/2,-y,z+1/2
  3  -x,y+1/2,-z
  4  x+1/2,-y+1/2,-z+1/2
  5  -x,-y,-z
  6  x+1/2,y,-z+1/2
  7  x,-y+1/2,z
  8  -x+1/2,y+1/2,z+1/2
loop_
 _atom_site_label
 _atom_site_occupancy
 _atom_site_fract_x
 _atom_site_fract_y
 _atom_site_fract_z
 _atom_site_thermal_displace_type
 _atom_site_B_iso_or_equiv
 _atom_site_type_symbol
 _atom_site_symmetry_multiplicity
 _atom_site_Wyckoff_label
F1 1.0000000000 0.2927948125 0.9379091546 0.1995548369  Biso 1.0 F 8 d
F2 1.0000000000 0.0557134124 0.2507651299 0.1115780627  Biso 1.0 F 4 c
K3 1.0000000000 0.9533354740 0.2473120556 0.5135153987  Biso 1.0 K 4 c
Sr4 1.0000000000 0.9945097626 0.9969434258 0.0000872294  Biso 1.0 Sr 4 a
