# AFLOW.org Repositories
# I24K8Sr8
data_I24K8Sr8
_pd_phase_name I24K8Sr8
_cell_length_a  9.0292092114
_cell_length_b  12.3222268530
_cell_length_c  8.3850377494
_cell_angle_alpha  89.5763752546
_cell_angle_beta  89.6485250720
_cell_angle_gamma  90.0846990493
_symmetry_space_group_name_H-M  'Pnma'
_symmetry_Int_Tables_Number  62
loop_
_symmetry_equiv_pos_site_id
_symmetry_equiv_pos_as_xyz
  1  x,y,z
  2  -x+1/2,-y,z+1/2
  3  -x,y+1/2,-z
  4  x+1/2,-y+1/2,-z+1/2
  5  -x,-y,-z
  6  x+1/2,y,-z+1/2
  7  x,-y+1/2,z
  8  -x+1/2,y+1/2,z+1/2
loop_
 _atom_site_label
 _atom_site_occupancy
 _atom_site_fract_x
 _atom_site_fract_y
 _atom_site_fract_z
 _atom_site_thermal_displace_type
 _atom_site_B_iso_or_equiv
 _atom_site_type_symbol
 _atom_site_symmetry_multiplicity
 _atom_site_Wyckoff_label
I1 1.0000000000 0.4526253615 0.2449841803 0.6350654047  Biso 1.0 I 4 c
I2 1.0000000000 0.8072787758 0.4341761509 0.3159468834  Biso 1.0 I 8 d
K3 1.0000000000 0.0883291362 0.2469089711 0.4667785944  Biso 1.0 K 4 c
Sr4 1.0000000000 0.9967981827 0.0021563148 0.9992134382  Biso 1.0 Sr 4 a
