# AFLOW.org Repositories
# Be8F24Li8
data_Be8F24Li8
_pd_phase_name Be8F24Li8
_cell_length_a  9.1989011315
_cell_length_b  5.3314418325
_cell_length_c  8.6074346980
_cell_angle_alpha  90.0322251640
_cell_angle_beta  88.9950686878
_cell_angle_gamma  90.0272377449
_symmetry_space_group_name_H-M  'Pm'
_symmetry_Int_Tables_Number  6
loop_
_symmetry_equiv_pos_site_id
_symmetry_equiv_pos_as_xyz
  1  x,y,z
  2  x,-y,z
loop_
 _atom_site_label
 _atom_site_occupancy
 _atom_site_fract_x
 _atom_site_fract_y
 _atom_site_fract_z
 _atom_site_thermal_displace_type
 _atom_site_B_iso_or_equiv
 _atom_site_type_symbol
 _atom_site_symmetry_multiplicity
 _atom_site_Wyckoff_label
Be1 1.0000000000 0.7252195672 0.5000000000 0.8500223463  Biso 1.0 Be 1 b
Be2 1.0000000000 0.7763514438 0.5002182649 0.3371357721  Biso 1.0 Be 1 b
Be3 1.0000000000 0.7976156112 0.0002110554 0.7812350729  Biso 1.0 Be 1 a
Be4 1.0000000000 0.2960776621 0.5015634846 0.7414736676  Biso 1.0 Be 1 b
Be5 1.0000000000 0.8244193598 0.0001868517 0.3338844810  Biso 1.0 Be 1 a
Be6 1.0000000000 0.1963172455 0.5011097314 0.2649433489  Biso 1.0 Be 1 b
Be7 1.0000000000 0.2235006399 0.0015265207 0.8179667947  Biso 1.0 Be 1 a
Be8 1.0000000000 0.3766947289 0.0011615298 0.2739832612  Biso 1.0 Be 1 a
F9 1.0000000000 0.6105390771 0.5000024801 0.9813190312  Biso 1.0 F 1 b
F10 1.0000000000 0.8706157118 0.5004396316 0.4850075492  Biso 1.0 F 1 b
F11 1.0000000000 0.8347711433 0.0004002119 0.9539025656  Biso 1.0 F 1 a
F12 1.0000000000 0.3341189241 0.5026325452 0.9150993607  Biso 1.0 F 1 b
F13 1.0000000000 0.7072376974 0.0001467946 0.4622222827  Biso 1.0 F 1 a
F14 1.0000000000 0.1444309395 0.4996141116 0.4352172648  Biso 1.0 F 1 b
F15 1.0000000000 0.1190428898 0.0008619549 0.9582871987  Biso 1.0 F 1 a
F16 1.0000000000 0.4235691079 0.0014706508 0.4444934199  Biso 1.0 F 1 a
F17 1.0000000000 0.6999957616 0.7519338105 0.7498715485  Biso 1.0 F 2 c
F18 1.0000000000 0.8106974580 0.7461054844 0.2373245321  Biso 1.0 F 2 c
F19 1.0000000000 0.1991244216 0.7512122356 0.7139957072  Biso 1.0 F 2 c
F20 1.0000000000 0.2905659326 0.7493391737 0.2368222139  Biso 1.0 F 2 c
F21 1.0000000000 0.8847523161 0.5003739341 0.9014555593  Biso 1.0 F 1 b
F22 1.0000000000 0.0743959137 0.5002735545 0.1437362125  Biso 1.0 F 1 b
F23 1.0000000000 0.9346463121 0.0001596530 0.6789386600  Biso 1.0 F 1 a
F24 1.0000000000 0.4317424296 0.5011917620 0.6351457996  Biso 1.0 F 1 b
F25 1.0000000000 0.9853397660 0.0002940153 0.3863356550  Biso 1.0 F 1 a
F26 1.0000000000 0.6154952198 0.5000623917 0.3875726326  Biso 1.0 F 1 b
F27 1.0000000000 0.3859524049 0.0025337457 0.8625480889  Biso 1.0 F 1 a
F28 1.0000000000 0.4998687113 0.9997258101 0.1488573295  Biso 1.0 F 1 a
Li29 1.0000000000 0.9730929813 0.7504343047 0.0264464318  Biso 1.0 Li 2 c
Li30 1.0000000000 0.0193280807 0.7473637268 0.5350543632  Biso 1.0 Li 2 c
Li31 1.0000000000 0.4631641758 0.7506894107 0.9971442917  Biso 1.0 Li 2 c
Li32 1.0000000000 0.5511284915 0.7510322760 0.5230175778  Biso 1.0 Li 2 c
