# AFLOW.org Repositories
# Ca8I24Li8
data_Ca8I24Li8
_pd_phase_name Ca8I24Li8
_cell_length_a  11.4890143977
_cell_length_b  11.5698877070
_cell_length_c  11.6954279072
_cell_angle_alpha  84.5919207720
_cell_angle_beta  84.5896471656
_cell_angle_gamma  86.1022290378
_symmetry_space_group_name_H-M  'P1'
_symmetry_Int_Tables_Number  1
loop_
_symmetry_equiv_pos_site_id
_symmetry_equiv_pos_as_xyz
  1  x,y,z
loop_
 _atom_site_label
 _atom_site_occupancy
 _atom_site_fract_x
 _atom_site_fract_y
 _atom_site_fract_z
 _atom_site_thermal_displace_type
 _atom_site_B_iso_or_equiv
 _atom_site_type_symbol
 _atom_site_symmetry_multiplicity
 _atom_site_Wyckoff_label
Ca1 1.0000000000 0.7407514156 0.7634375237 0.7543083542  Biso 1.0 Ca 1 a
Ca2 1.0000000000 0.7398364267 0.2541614045 0.7388089100  Biso 1.0 Ca 1 a
Ca3 1.0000000000 0.2309576250 0.7500638045 0.7387350169  Biso 1.0 Ca 1 a
Ca4 1.0000000000 0.7422292880 0.7426796904 0.2258726814  Biso 1.0 Ca 1 a
Ca5 1.0000000000 0.2402023106 0.2340365563 0.7607751899  Biso 1.0 Ca 1 a
Ca6 1.0000000000 0.7357951267 0.2799470138 0.2471004185  Biso 1.0 Ca 1 a
Ca7 1.0000000000 0.2462144337 0.7595213231 0.2461093861  Biso 1.0 Ca 1 a
Ca8 1.0000000000 0.2377956665 0.2487112680 0.2405677922  Biso 1.0 Ca 1 a
I9 1.0000000000 0.8185018244 0.0101437456 0.6562061038  Biso 1.0 I 1 a
I10 1.0000000000 0.6428805660 0.5071532696 0.8049179750  Biso 1.0 I 1 a
I11 1.0000000000 0.1407737018 0.9949451579 0.8136707979  Biso 1.0 I 1 a
I12 1.0000000000 0.6696938697 0.0062131334 0.2945105084  Biso 1.0 I 1 a
I13 1.0000000000 0.3235661740 0.4961238470 0.6631899074  Biso 1.0 I 1 a
I14 1.0000000000 0.8303923018 0.5096479339 0.1374051880  Biso 1.0 I 1 a
I15 1.0000000000 0.3262032613 0.0072738577 0.1581099544  Biso 1.0 I 1 a
I16 1.0000000000 0.1512980015 0.5051551056 0.3047669997  Biso 1.0 I 1 a
I17 1.0000000000 0.9867421078 0.6554438140 0.8150913551  Biso 1.0 I 1 a
I18 1.0000000000 0.9972346436 0.3243655896 0.6701007345  Biso 1.0 I 1 a
I19 1.0000000000 0.4841162820 0.8411912639 0.6799726083  Biso 1.0 I 1 a
I20 1.0000000000 0.9981449346 0.8154059487 0.1484755862  Biso 1.0 I 1 a
I21 1.0000000000 0.4891983273 0.1846646325 0.8444750633  Biso 1.0 I 1 a
I22 1.0000000000 0.9821155589 0.1695392781 0.3178681880  Biso 1.0 I 1 a
I23 1.0000000000 0.4902922659 0.6763869894 0.3391494168  Biso 1.0 I 1 a
I24 1.0000000000 0.4866856928 0.3377065318 0.1628912227  Biso 1.0 I 1 a
I25 1.0000000000 0.6463842419 0.8391572002 0.9956798850  Biso 1.0 I 1 a
I26 1.0000000000 0.8017473462 0.1803565816 0.0012771388  Biso 1.0 I 1 a
I27 1.0000000000 0.3056669326 0.6625385302 0.9909754578  Biso 1.0 I 1 a
I28 1.0000000000 0.7825396596 0.6902248004 0.4940319866  Biso 1.0 I 1 a
I29 1.0000000000 0.1679682923 0.3399044651 0.9932068453  Biso 1.0 I 1 a
I30 1.0000000000 0.6498066453 0.3317265819 0.4971710211  Biso 1.0 I 1 a
I31 1.0000000000 0.1507875987 0.8312060528 0.4925980501  Biso 1.0 I 1 a
I32 1.0000000000 0.2907292539 0.1820720100 0.4982651171  Biso 1.0 I 1 a
Li33 1.0000000000 0.9154623909 0.0357251284 0.1595949105  Biso 1.0 Li 1 a
Li34 1.0000000000 0.0639455409 0.5731151030 0.0304993021  Biso 1.0 Li 1 a
Li35 1.0000000000 0.5631836014 0.0632166417 0.0623313486  Biso 1.0 Li 1 a
Li36 1.0000000000 0.0626985820 0.0445377343 0.5882338413  Biso 1.0 Li 1 a
Li37 1.0000000000 0.4215310866 0.4304953198 0.9393456582  Biso 1.0 Li 1 a
Li38 1.0000000000 0.1780608715 0.4099234913 0.5173816483  Biso 1.0 Li 1 a
Li39 1.0000000000 0.5778214979 0.8425715955 0.4641655457  Biso 1.0 Li 1 a
Li40 1.0000000000 0.5774359307 0.5507974879 0.5666055171  Biso 1.0 Li 1 a
