# AFLOW.org Repositories
# Ca8Cl24Li8
data_Ca8Cl24Li8
_pd_phase_name Ca8Cl24Li8
_cell_length_a  13.3889417872
_cell_length_b  13.3963591203
_cell_length_c  19.2109940834
_cell_angle_alpha  89.9876523268
_cell_angle_beta  90.0592750671
_cell_angle_gamma  119.9633267191
_symmetry_space_group_name_H-M  'R3'
_symmetry_Int_Tables_Number  146
loop_
_symmetry_equiv_pos_site_id
_symmetry_equiv_pos_as_xyz
  1  x,y,z
  2  -y,x-y,z
  3  -x+y,-x,z
  4  x+2/3,y+1/3,z+1/3
  5  -y+2/3,x-y+1/3,z+1/3
  6  -x+y+2/3,-x+1/3,z+1/3
  7  x+1/3,y+2/3,z+2/3
  8  -y+1/3,x-y+2/3,z+2/3
  9  -x+y+1/3,-x+2/3,z+2/3
loop_
 _atom_site_label
 _atom_site_occupancy
 _atom_site_fract_x
 _atom_site_fract_y
 _atom_site_fract_z
 _atom_site_thermal_displace_type
 _atom_site_B_iso_or_equiv
 _atom_site_type_symbol
 _atom_site_symmetry_multiplicity
 _atom_site_Wyckoff_label
Ca1 1.0000000000 0.1701332441 0.3410025465 0.5766561378  Biso 1.0 Ca 9 b
Ca2 1.0000000000 0.3317648488 0.1702057870 0.4129400210  Biso 1.0 Ca 9 b
Ca3 1.0000000000 0.0017509246 0.0015714570 0.7445283949  Biso 1.0 Ca 3 a
Ca4 1.0000000000 0.0090542630 0.0033581490 0.2521513889  Biso 1.0 Ca 3 a
Cl5 1.0000000000 0.0114007348 0.3343153767 0.6720003671  Biso 1.0 Cl 9 b
Cl6 1.0000000000 0.3271381964 0.3479601655 0.4805016767  Biso 1.0 Cl 9 b
Cl7 1.0000000000 0.8261023656 0.3288007952 0.4883117781  Biso 1.0 Cl 9 b
Cl8 1.0000000000 0.0026588742 0.1752432567 0.8193477148  Biso 1.0 Cl 9 b
Cl9 1.0000000000 0.8308430954 0.9969768662 0.3244312075  Biso 1.0 Cl 9 b
Cl10 1.0000000000 0.0028131400 0.8422815119 0.6539496332  Biso 1.0 Cl 9 b
Cl11 1.0000000000 0.5096873170 0.8303441069 0.6731760541  Biso 1.0 Cl 9 b
Cl12 1.0000000000 0.8298077827 0.8383894950 0.4930538049  Biso 1.0 Cl 9 b
Li13 1.0000000000 0.0026051042 0.0011460268 0.0655447089  Biso 1.0 Li 3 a
Li14 1.0000000000 0.1846373603 0.8354611177 0.7709671989  Biso 1.0 Li 9 b
Li15 1.0000000000 0.1780831303 0.3430046427 0.3794071591  Biso 1.0 Li 9 b
Li16 1.0000000000 0.0016001063 0.0000481780 0.5384162036  Biso 1.0 Li 3 a
