# AFLOW.org Repositories
# Ca4F12Li4
data_Ca4F12Li4
_pd_phase_name Ca4F12Li4
_cell_length_a  5.7884557460
_cell_length_b  7.4703739830
_cell_length_c  5.2567578342
_cell_angle_alpha  90.0095424937
_cell_angle_beta  90.0601423530
_cell_angle_gamma  89.9979886820
_symmetry_space_group_name_H-M  'Pnma'
_symmetry_Int_Tables_Number  62
loop_
_symmetry_equiv_pos_site_id
_symmetry_equiv_pos_as_xyz
  1  x,y,z
  2  -x+1/2,-y,z+1/2
  3  -x,y+1/2,-z
  4  x+1/2,-y+1/2,-z+1/2
  5  -x,-y,-z
  6  x+1/2,y,-z+1/2
  7  x,-y+1/2,z
  8  -x+1/2,y+1/2,z+1/2
loop_
 _atom_site_label
 _atom_site_occupancy
 _atom_site_fract_x
 _atom_site_fract_y
 _atom_site_fract_z
 _atom_site_thermal_displace_type
 _atom_site_B_iso_or_equiv
 _atom_site_type_symbol
 _atom_site_symmetry_multiplicity
 _atom_site_Wyckoff_label
Ca1 1.0000000000 0.9106884105 0.2494226528 0.4777803803  Biso 1.0 Ca 4 c
F2 1.0000000000 0.6834264965 0.0573629808 0.1857781086  Biso 1.0 F 8 d
F3 1.0000000000 0.0381049568 0.2499103424 0.8856598716  Biso 1.0 F 4 c
Li4 1.0000000000 0.0017290697 0.9992942546 0.9992715887  Biso 1.0 Li 4 a
