# AFLOW.org Repositories
# Br24Li8Mg8
data_Br24Li8Mg8
_pd_phase_name Br24Li8Mg8
_cell_length_a  6.7474959681
_cell_length_b  6.8034500865
_cell_length_c  18.6274605599
_cell_angle_alpha  90.0863341577
_cell_angle_beta  90.0517947300
_cell_angle_gamma  119.9787386755
_symmetry_space_group_name_H-M  'R3c'
_symmetry_Int_Tables_Number  161
loop_
_symmetry_equiv_pos_site_id
_symmetry_equiv_pos_as_xyz
  1  x,y,z
  2  -y,x-y,z
  3  -x+y,-x,z
  4  -y,-x,z+1/2
  5  -x+y,y,z+1/2
  6  x,x-y,z+1/2
  7  x+2/3,y+1/3,z+1/3
  8  -y+2/3,x-y+1/3,z+1/3
  9  -x+y+2/3,-x+1/3,z+1/3
  10  -y+2/3,-x+1/3,z+5/6
  11  -x+y+2/3,y+1/3,z+5/6
  12  x+2/3,x-y+1/3,z+5/6
  13  x+1/3,y+2/3,z+2/3
  14  -y+1/3,x-y+2/3,z+2/3
  15  -x+y+1/3,-x+2/3,z+2/3
  16  -y+1/3,-x+2/3,z+1/6
  17  -x+y+1/3,y+2/3,z+1/6
  18  x+1/3,x-y+2/3,z+1/6
loop_
 _atom_site_label
 _atom_site_occupancy
 _atom_site_fract_x
 _atom_site_fract_y
 _atom_site_fract_z
 _atom_site_thermal_displace_type
 _atom_site_B_iso_or_equiv
 _atom_site_type_symbol
 _atom_site_symmetry_multiplicity
 _atom_site_Wyckoff_label
Br1 1.0000000000 0.3394829924 0.3545621117 0.8486016999  Biso 1.0 Br 18 b
Li2 1.0000000000 0.0000000000 -0.0000000000 0.2785498276  Biso 1.0 Li 6 a
Mg3 1.0000000000 0.0075063594 0.0039684932 0.0896697385  Biso 1.0 Mg 6 a
