# AFLOW.org Repositories
# Br24Li8Pb8
data_Br24Li8Pb8
_pd_phase_name Br24Li8Pb8
_cell_length_a  10.9679737300
_cell_length_b  11.1079375292
_cell_length_c  11.3257783825
_cell_angle_alpha  81.2496481739
_cell_angle_beta  82.4034041379
_cell_angle_gamma  85.4912377512
_symmetry_space_group_name_H-M  'P1'
_symmetry_Int_Tables_Number  1
loop_
_symmetry_equiv_pos_site_id
_symmetry_equiv_pos_as_xyz
  1  x,y,z
loop_
 _atom_site_label
 _atom_site_occupancy
 _atom_site_fract_x
 _atom_site_fract_y
 _atom_site_fract_z
 _atom_site_thermal_displace_type
 _atom_site_B_iso_or_equiv
 _atom_site_type_symbol
 _atom_site_symmetry_multiplicity
 _atom_site_Wyckoff_label
Br1 1.0000000000 0.9854332851 0.1646889194 0.3322973210  Biso 1.0 Br 1 a
Br2 1.0000000000 0.4937953807 0.3598138106 0.1495961586  Biso 1.0 Br 1 a
Br3 1.0000000000 0.9929966804 0.3639337276 0.6647272920  Biso 1.0 Br 1 a
Br4 1.0000000000 0.0090104545 0.8673355259 0.1696457547  Biso 1.0 Br 1 a
Br5 1.0000000000 0.4890567212 0.1837686270 0.8334285323  Biso 1.0 Br 1 a
Br6 1.0000000000 0.5012271875 0.6856302698 0.3436552916  Biso 1.0 Br 1 a
Br7 1.0000000000 0.9798435933 0.6914556118 0.8174508006  Biso 1.0 Br 1 a
Br8 1.0000000000 0.4890791610 0.8732572407 0.6226170083  Biso 1.0 Br 1 a
Br9 1.0000000000 0.7690293422 0.2057699513 0.9649423771  Biso 1.0 Br 1 a
Br10 1.0000000000 0.1345371687 0.3244292721 0.9948774469  Biso 1.0 Br 1 a
Br11 1.0000000000 0.6509419456 0.3492835555 0.4599540067  Biso 1.0 Br 1 a
Br12 1.0000000000 0.6997148653 0.8614219331 0.9769985940  Biso 1.0 Br 1 a
Br13 1.0000000000 0.2977607820 0.2168747913 0.4892259130  Biso 1.0 Br 1 a
Br14 1.0000000000 0.2792452402 0.6533870709 0.9696711875  Biso 1.0 Br 1 a
Br15 1.0000000000 0.8537230532 0.7193781415 0.4799739772  Biso 1.0 Br 1 a
Br16 1.0000000000 0.1925451311 0.8575990840 0.4523644306  Biso 1.0 Br 1 a
Br17 1.0000000000 0.6707353933 0.0039779873 0.2988291907  Biso 1.0 Br 1 a
Br18 1.0000000000 0.3742460652 0.0067909684 0.1654921138  Biso 1.0 Br 1 a
Br19 1.0000000000 0.8521956175 0.9983315383 0.6513527225  Biso 1.0 Br 1 a
Br20 1.0000000000 0.8455682011 0.5193136659 0.1255818274  Biso 1.0 Br 1 a
Br21 1.0000000000 0.1407974445 0.9915038152 0.8362199875  Biso 1.0 Br 1 a
Br22 1.0000000000 0.1437372558 0.5090836356 0.2896626757  Biso 1.0 Br 1 a
Br23 1.0000000000 0.6229389352 0.5051823588 0.7432274187  Biso 1.0 Br 1 a
Br24 1.0000000000 0.2967798690 0.5117568189 0.6350957327  Biso 1.0 Br 1 a
Li25 1.0000000000 0.9710316490 0.9292920099 0.3995727743  Biso 1.0 Li 1 a
Li26 1.0000000000 0.5807301147 0.0584814872 0.0247070403  Biso 1.0 Li 1 a
Li27 1.0000000000 0.9222903765 0.9130964929 0.8644368035  Biso 1.0 Li 1 a
Li28 1.0000000000 0.0643758242 0.5477212796 0.0032682843  Biso 1.0 Li 1 a
Li29 1.0000000000 0.4548080526 0.9140127117 0.3887177806  Biso 1.0 Li 1 a
Li30 1.0000000000 0.5631782349 0.3532357688 0.9347257242  Biso 1.0 Li 1 a
Li31 1.0000000000 0.1692794941 0.4212048895 0.4989243816  Biso 1.0 Li 1 a
Li32 1.0000000000 0.5165126363 0.5245253922 0.5364253153  Biso 1.0 Li 1 a
Pb33 1.0000000000 0.7553366191 0.2706447941 0.2231330166  Biso 1.0 Pb 1 a
Pb34 1.0000000000 0.2426562844 0.2499193670 0.2312918370  Biso 1.0 Pb 1 a
Pb35 1.0000000000 0.7522962108 0.2544593847 0.6889024623  Biso 1.0 Pb 1 a
Pb36 1.0000000000 0.7612956805 0.7535447410 0.2311876553  Biso 1.0 Pb 1 a
Pb37 1.0000000000 0.2269347074 0.2422266632 0.7579732259  Biso 1.0 Pb 1 a
Pb38 1.0000000000 0.2538579794 0.7513755187 0.2110889119  Biso 1.0 Pb 1 a
Pb39 1.0000000000 0.7221629155 0.7641101189 0.7109114581  Biso 1.0 Pb 1 a
Pb40 1.0000000000 0.2364964632 0.7695718268 0.7194001403  Biso 1.0 Pb 1 a
