# AFLOW.org Repositories
# F24Li8Pb8
data_F24Li8Pb8
_pd_phase_name F24Li8Pb8
_cell_length_a  9.6555566020
_cell_length_b  8.2919649349
_cell_length_c  8.6599261335
_cell_angle_alpha  73.8177224518
_cell_angle_beta  77.1546333215
_cell_angle_gamma  76.1694229137
_symmetry_space_group_name_H-M  'P1'
_symmetry_Int_Tables_Number  1
loop_
_symmetry_equiv_pos_site_id
_symmetry_equiv_pos_as_xyz
  1  x,y,z
loop_
 _atom_site_label
 _atom_site_occupancy
 _atom_site_fract_x
 _atom_site_fract_y
 _atom_site_fract_z
 _atom_site_thermal_displace_type
 _atom_site_B_iso_or_equiv
 _atom_site_type_symbol
 _atom_site_symmetry_multiplicity
 _atom_site_Wyckoff_label
F1 1.0000000000 0.6346652147 0.8841371429 0.3565214682  Biso 1.0 F 1 a
F2 1.0000000000 0.8606660815 0.6120318824 0.9678129683  Biso 1.0 F 1 a
F3 1.0000000000 0.7939252779 0.0189712423 0.7778421737  Biso 1.0 F 1 a
F4 1.0000000000 0.3482534756 0.0182616597 0.2324183239  Biso 1.0 F 1 a
F5 1.0000000000 0.8833402195 0.5062841215 0.6950456110  Biso 1.0 F 1 a
F6 1.0000000000 0.3389800000 0.5801567062 0.2480624852  Biso 1.0 F 1 a
F7 1.0000000000 0.3798778593 0.9193989472 0.6206084561  Biso 1.0 F 1 a
F8 1.0000000000 0.1610026515 0.4102187154 0.9328725673  Biso 1.0 F 1 a
F9 1.0000000000 0.8961578668 0.8766168178 0.1253810675  Biso 1.0 F 1 a
F10 1.0000000000 0.6181789260 0.1762281689 0.0488395852  Biso 1.0 F 1 a
F11 1.0000000000 0.8743143464 0.9014481566 0.4842221610  Biso 1.0 F 1 a
F12 1.0000000000 0.2663354439 0.8471624493 0.9837947398  Biso 1.0 F 1 a
F13 1.0000000000 0.7689087287 0.2755164343 0.4853556941  Biso 1.0 F 1 a
F14 1.0000000000 0.4813016358 0.1111936474 0.8332827994  Biso 1.0 F 1 a
F15 1.0000000000 0.1487243637 0.6683294129 0.5404856325  Biso 1.0 F 1 a
F16 1.0000000000 0.2007768299 0.3239015294 0.5120190707  Biso 1.0 F 1 a
F17 1.0000000000 0.0214087586 0.5630826788 0.3079344477  Biso 1.0 F 1 a
F18 1.0000000000 0.0495980780 0.1414032985 0.3382848293  Biso 1.0 F 1 a
F19 1.0000000000 0.0767090835 0.9705966214 0.7217172302  Biso 1.0 F 1 a
F20 1.0000000000 0.5887851592 0.7864827478 0.0570809917  Biso 1.0 F 1 a
F21 1.0000000000 0.9716368021 0.1899081414 0.9494620427  Biso 1.0 F 1 a
F22 1.0000000000 0.4930733060 0.2190277952 0.3786215580  Biso 1.0 F 1 a
F23 1.0000000000 0.5091874870 0.5908769878 0.8686766473  Biso 1.0 F 1 a
F24 1.0000000000 0.4376850759 0.4770747156 0.6062449313  Biso 1.0 F 1 a
Li25 1.0000000000 0.9293878560 0.0026154429 0.9068152324  Biso 1.0 Li 1 a
Li26 1.0000000000 0.9697223208 0.4196811020 0.8950826093  Biso 1.0 Li 1 a
Li27 1.0000000000 0.9333132085 0.0704279656 0.5576224417  Biso 1.0 Li 1 a
Li28 1.0000000000 0.5091406133 0.0161436926 0.0546673392  Biso 1.0 Li 1 a
Li29 1.0000000000 0.0417857477 0.5081405953 0.5308959352  Biso 1.0 Li 1 a
Li30 1.0000000000 0.4360932886 0.6855893421 0.0504276712  Biso 1.0 Li 1 a
Li31 1.0000000000 0.4477623204 0.0011264390 0.4058886568  Biso 1.0 Li 1 a
Li32 1.0000000000 0.3832493355 0.4197476373 0.4406756228  Biso 1.0 Li 1 a
Pb33 1.0000000000 0.7725783293 0.6548085371 0.2360448514  Biso 1.0 Pb 1 a
Pb34 1.0000000000 0.7449005921 0.1328085817 0.2719200910  Biso 1.0 Pb 1 a
Pb35 1.0000000000 0.7211793358 0.7697004361 0.7536259225  Biso 1.0 Pb 1 a
Pb36 1.0000000000 0.1320499315 0.8385540708 0.2726780155  Biso 1.0 Pb 1 a
Pb37 1.0000000000 0.6390090860 0.3120199235 0.7526105663  Biso 1.0 Pb 1 a
Pb38 1.0000000000 0.2144281962 0.3202233546 0.2233305389  Biso 1.0 Pb 1 a
Pb39 1.0000000000 0.2692311555 0.6723868413 0.7541413614  Biso 1.0 Pb 1 a
Pb40 1.0000000000 0.2373688465 0.1216064018 0.7804201259  Biso 1.0 Pb 1 a
