# AFLOW.org Repositories
# I24Li8Pb8
data_I24Li8Pb8
_pd_phase_name I24Li8Pb8
_cell_length_a  11.8696409370
_cell_length_b  11.9079549758
_cell_length_c  11.8190834816
_cell_angle_alpha  83.5326695387
_cell_angle_beta  84.5764899150
_cell_angle_gamma  85.2905936007
_symmetry_space_group_name_H-M  'P1'
_symmetry_Int_Tables_Number  1
loop_
_symmetry_equiv_pos_site_id
_symmetry_equiv_pos_as_xyz
  1  x,y,z
loop_
 _atom_site_label
 _atom_site_occupancy
 _atom_site_fract_x
 _atom_site_fract_y
 _atom_site_fract_z
 _atom_site_thermal_displace_type
 _atom_site_B_iso_or_equiv
 _atom_site_type_symbol
 _atom_site_symmetry_multiplicity
 _atom_site_Wyckoff_label
I1 1.0000000000 0.0009154366 0.6451623801 0.3662403866  Biso 1.0 I 1 a
I2 1.0000000000 0.4990620699 0.8238370412 0.2155202248  Biso 1.0 I 1 a
I3 1.0000000000 0.0022577847 0.3232045982 0.1444722994  Biso 1.0 I 1 a
I4 1.0000000000 0.9946638329 0.8641896240 0.7113193723  Biso 1.0 I 1 a
I5 1.0000000000 0.4930479637 0.1651862801 0.3321208265  Biso 1.0 I 1 a
I6 1.0000000000 0.5058214397 0.6645879271 0.8533531603  Biso 1.0 I 1 a
I7 1.0000000000 0.0067776514 0.1872151055 0.8245810034  Biso 1.0 I 1 a
I8 1.0000000000 0.5115500744 0.3337114462 0.6446325049  Biso 1.0 I 1 a
I9 1.0000000000 0.8571648263 0.0019032221 0.1594295257  Biso 1.0 I 1 a
I10 1.0000000000 0.1855279328 0.0153107957 0.3247360125  Biso 1.0 I 1 a
I11 1.0000000000 0.6648178094 0.5037330315 0.3103017663  Biso 1.0 I 1 a
I12 1.0000000000 0.6791233201 0.9831099530 0.8608303295  Biso 1.0 I 1 a
I13 1.0000000000 0.3449989741 0.5247072517 0.1569023291  Biso 1.0 I 1 a
I14 1.0000000000 0.3531778564 0.9967553648 0.6602426940  Biso 1.0 I 1 a
I15 1.0000000000 0.8492434549 0.4868468223 0.7060005762  Biso 1.0 I 1 a
I16 1.0000000000 0.1975406230 0.4929590298 0.8331992360  Biso 1.0 I 1 a
I17 1.0000000000 0.8280149061 0.6661940031 0.0071028773  Biso 1.0 I 1 a
I18 1.0000000000 0.1506915510 0.8535834080 0.0244641149  Biso 1.0 I 1 a
I19 1.0000000000 0.6648325314 0.3359433238 0.0092120787  Biso 1.0 I 1 a
I20 1.0000000000 0.6865068614 0.8567144440 0.4991244279  Biso 1.0 I 1 a
I21 1.0000000000 0.3180111284 0.1705750906 0.0137537096  Biso 1.0 I 1 a
I22 1.0000000000 0.3414888345 0.6899836984 0.5288492171  Biso 1.0 I 1 a
I23 1.0000000000 0.8451936915 0.1836785362 0.5111430015  Biso 1.0 I 1 a
I24 1.0000000000 0.1927816569 0.3647480927 0.5056013075  Biso 1.0 I 1 a
Li25 1.0000000000 0.9008875929 0.8987594642 0.9448406466  Biso 1.0 Li 1 a
Li26 1.0000000000 0.4022196354 0.0329802003 0.1906106152  Biso 1.0 Li 1 a
Li27 1.0000000000 0.9733209036 0.4088520119 0.9035339717  Biso 1.0 Li 1 a
Li28 1.0000000000 0.0889013233 0.0815977725 0.1115042631  Biso 1.0 Li 1 a
Li29 1.0000000000 0.5958497721 0.5522685215 0.0770839351  Biso 1.0 Li 1 a
Li30 1.0000000000 0.4592516831 0.8869901130 0.4572575933  Biso 1.0 Li 1 a
Li31 1.0000000000 0.9786818928 0.3287214980 0.5845321344  Biso 1.0 Li 1 a
Li32 1.0000000000 0.4152968074 0.5319134789 0.7125755828  Biso 1.0 Li 1 a
Pb33 1.0000000000 0.7783012428 0.7488375555 0.2679959327  Biso 1.0 Pb 1 a
Pb34 1.0000000000 0.2323203004 0.7441373492 0.2680902819  Biso 1.0 Pb 1 a
Pb35 1.0000000000 0.7514417003 0.2555092416 0.2535377648  Biso 1.0 Pb 1 a
Pb36 1.0000000000 0.7482157401 0.7540710103 0.7500091799  Biso 1.0 Pb 1 a
Pb37 1.0000000000 0.2560223459 0.2879987567 0.2533456570  Biso 1.0 Pb 1 a
Pb38 1.0000000000 0.2388646882 0.7768208414 0.7723427648  Biso 1.0 Pb 1 a
Pb39 1.0000000000 0.7374534086 0.2364882401 0.7601666510  Biso 1.0 Pb 1 a
Pb40 1.0000000000 0.2719996939 0.2426840530 0.7417575958  Biso 1.0 Pb 1 a
