# AFLOW.org Repositories
# Br24Ge8Na8
data_Br24Ge8Na8
_pd_phase_name Br24Ge8Na8
_cell_length_a  11.0416934170
_cell_length_b  10.9214715778
_cell_length_c  11.0386923946
_cell_angle_alpha  85.8822339114
_cell_angle_beta  86.2068950901
_cell_angle_gamma  84.6946349513
_symmetry_space_group_name_H-M  'P1'
_symmetry_Int_Tables_Number  1
loop_
_symmetry_equiv_pos_site_id
_symmetry_equiv_pos_as_xyz
  1  x,y,z
loop_
 _atom_site_label
 _atom_site_occupancy
 _atom_site_fract_x
 _atom_site_fract_y
 _atom_site_fract_z
 _atom_site_thermal_displace_type
 _atom_site_B_iso_or_equiv
 _atom_site_type_symbol
 _atom_site_symmetry_multiplicity
 _atom_site_Wyckoff_label
Br1 1.0000000000 0.6679771373 0.0046441768 0.3024223987  Biso 1.0 Br 1 a
Br2 1.0000000000 0.8032662210 0.5008911577 0.1531159499  Biso 1.0 Br 1 a
Br3 1.0000000000 0.6422415389 0.8317142730 0.9801912302  Biso 1.0 Br 1 a
Br4 1.0000000000 0.3055386115 0.0029176900 0.1614145402  Biso 1.0 Br 1 a
Br5 1.0000000000 0.6545568017 0.3358569625 0.5110326910  Biso 1.0 Br 1 a
Br6 1.0000000000 0.1647217600 0.5117145833 0.2964736480  Biso 1.0 Br 1 a
Br7 1.0000000000 0.1332419215 0.0080095515 0.8068896668  Biso 1.0 Br 1 a
Br8 1.0000000000 0.2994947247 0.5082016839 0.6407676417  Biso 1.0 Br 1 a
Br9 1.0000000000 0.6510564000 0.5512642047 0.8003533083  Biso 1.0 Br 1 a
Br10 1.0000000000 0.8056049654 0.1892250376 0.0149437508  Biso 1.0 Br 1 a
Br11 1.0000000000 0.7969073844 0.6979395827 0.4757145976  Biso 1.0 Br 1 a
Br12 1.0000000000 0.2970018686 0.6980259496 0.0185156130  Biso 1.0 Br 1 a
Br13 1.0000000000 0.7975540768 0.0460924252 0.6579389418  Biso 1.0 Br 1 a
Br14 1.0000000000 0.1673371787 0.3304442916 0.0098881542  Biso 1.0 Br 1 a
Br15 1.0000000000 0.1524498674 0.8334148901 0.5213823567  Biso 1.0 Br 1 a
Br16 1.0000000000 0.3001737972 0.1875433477 0.5073090047  Biso 1.0 Br 1 a
Br17 1.0000000000 0.9752119463 0.8269010377 0.1767869993  Biso 1.0 Br 1 a
Br18 1.0000000000 0.9834996572 0.1969613078 0.2981746573  Biso 1.0 Br 1 a
Br19 1.0000000000 0.0023982046 0.6879613166 0.8064015977  Biso 1.0 Br 1 a
Br20 1.0000000000 0.4826360538 0.6938312696 0.2981346542  Biso 1.0 Br 1 a
Br21 1.0000000000 0.0156275260 0.3384304954 0.6577965249  Biso 1.0 Br 1 a
Br22 1.0000000000 0.4734309584 0.3326195634 0.1596378358  Biso 1.0 Br 1 a
Br23 1.0000000000 0.4977095784 0.8412965103 0.6643508145  Biso 1.0 Br 1 a
Br24 1.0000000000 0.5139014965 0.1977211289 0.8010082047  Biso 1.0 Br 1 a
Ge25 1.0000000000 0.7538622827 0.7817786965 0.2558012148  Biso 1.0 Ge 1 a
Ge26 1.0000000000 0.7685031070 0.2734269979 0.2274031570  Biso 1.0 Ge 1 a
Ge27 1.0000000000 0.7044734804 0.7774876915 0.7593708439  Biso 1.0 Ge 1 a
Ge28 1.0000000000 0.2647774999 0.7744105676 0.2342204714  Biso 1.0 Ge 1 a
Ge29 1.0000000000 0.7247139629 0.2639384227 0.7252990298  Biso 1.0 Ge 1 a
Ge30 1.0000000000 0.2458424906 0.2948455000 0.2255232090  Biso 1.0 Ge 1 a
Ge31 1.0000000000 0.2030050741 0.7877535979 0.7488137401  Biso 1.0 Ge 1 a
Ge32 1.0000000000 0.2426975643 0.2904603281 0.7095501133  Biso 1.0 Ge 1 a
Na33 1.0000000000 0.0554852263 0.0730161691 0.0616558768  Biso 1.0 Na 1 a
Na34 1.0000000000 0.0490305932 0.5813997560 0.0577661002  Biso 1.0 Na 1 a
Na35 1.0000000000 0.0446695327 0.0895818249 0.5501031685  Biso 1.0 Na 1 a
Na36 1.0000000000 0.5520734874 0.0842334421 0.0561137660  Biso 1.0 Na 1 a
Na37 1.0000000000 0.0471598515 0.5863207671 0.5429489878  Biso 1.0 Na 1 a
Na38 1.0000000000 0.5495012386 0.5791308279 0.0572859589  Biso 1.0 Na 1 a
Na39 1.0000000000 0.5524390484 0.0812645016 0.5438019924  Biso 1.0 Na 1 a
Na40 1.0000000000 0.5446527610 0.5913199741 0.5504246743  Biso 1.0 Na 1 a
