# AFLOW.org Repositories
# Cl24Ge8Na8
data_Cl24Ge8Na8
_pd_phase_name Cl24Ge8Na8
_cell_length_a  10.5833332590
_cell_length_b  10.6802020887
_cell_length_c  10.4447825248
_cell_angle_alpha  85.1180291364
_cell_angle_beta  88.2177834905
_cell_angle_gamma  91.0619994744
_symmetry_space_group_name_H-M  'P1'
_symmetry_Int_Tables_Number  1
loop_
_symmetry_equiv_pos_site_id
_symmetry_equiv_pos_as_xyz
  1  x,y,z
loop_
 _atom_site_label
 _atom_site_occupancy
 _atom_site_fract_x
 _atom_site_fract_y
 _atom_site_fract_z
 _atom_site_thermal_displace_type
 _atom_site_B_iso_or_equiv
 _atom_site_type_symbol
 _atom_site_symmetry_multiplicity
 _atom_site_Wyckoff_label
Cl1 1.0000000000 0.0995038396 0.9227947833 0.2641755630  Biso 1.0 Cl 1 a
Cl2 1.0000000000 0.2812464862 0.4419887686 0.1611807270  Biso 1.0 Cl 1 a
Cl3 1.0000000000 0.2754858349 0.0064360836 0.6148368324  Biso 1.0 Cl 1 a
Cl4 1.0000000000 0.7747439670 0.0208805041 0.3931047530  Biso 1.0 Cl 1 a
Cl5 1.0000000000 0.3389851302 0.5120561839 0.8150651209  Biso 1.0 Cl 1 a
Cl6 1.0000000000 0.6240461343 0.5178987111 0.2507580798  Biso 1.0 Cl 1 a
Cl7 1.0000000000 0.9287194956 0.0771080900 0.7498184978  Biso 1.0 Cl 1 a
Cl8 1.0000000000 0.7574588252 0.5616225072 0.8531925753  Biso 1.0 Cl 1 a
Cl9 1.0000000000 0.2821980655 0.0837683629 0.9394799765  Biso 1.0 Cl 1 a
Cl10 1.0000000000 0.1315298391 0.7481635573 0.9241056860  Biso 1.0 Cl 1 a
Cl11 1.0000000000 0.1185616104 0.2668736338 0.4174016582  Biso 1.0 Cl 1 a
Cl12 1.0000000000 0.5952307407 0.2574300393 0.0713074887  Biso 1.0 Cl 1 a
Cl13 1.0000000000 0.2291990390 0.6526392685 0.4549548184  Biso 1.0 Cl 1 a
Cl14 1.0000000000 0.7779758031 0.9235881858 0.0735336425  Biso 1.0 Cl 1 a
Cl15 1.0000000000 0.7962064663 0.3407964280 0.5528756625  Biso 1.0 Cl 1 a
Cl16 1.0000000000 0.5908817382 0.7411890707 0.6091844093  Biso 1.0 Cl 1 a
Cl17 1.0000000000 0.0159771180 0.2506241333 0.1030612547  Biso 1.0 Cl 1 a
Cl18 1.0000000000 0.9891022599 0.6126758361 0.2372271905  Biso 1.0 Cl 1 a
Cl19 1.0000000000 0.0443432573 0.3856613184 0.7468081846  Biso 1.0 Cl 1 a
Cl20 1.0000000000 0.4874346654 0.2380775010 0.3965046881  Biso 1.0 Cl 1 a
Cl21 1.0000000000 0.9225443040 0.7468867748 0.6006843644  Biso 1.0 Cl 1 a
Cl22 1.0000000000 0.5117470629 0.8826158578 0.2752283317  Biso 1.0 Cl 1 a
Cl23 1.0000000000 0.5506952122 0.1036865069 0.7488082058  Biso 1.0 Cl 1 a
Cl24 1.0000000000 0.4663326610 0.7616641814 0.9603132823  Biso 1.0 Cl 1 a
Ge25 1.0000000000 0.2074698031 0.2249751280 0.2172313202  Biso 1.0 Ge 1 a
Ge26 1.0000000000 0.1866146526 0.7196778898 0.2305497099  Biso 1.0 Ge 1 a
Ge27 1.0000000000 0.3402382270 0.1774192148 0.7306417990  Biso 1.0 Ge 1 a
Ge28 1.0000000000 0.6799938456 0.2982964466 0.2752033569  Biso 1.0 Ge 1 a
Ge29 1.0000000000 0.3256362801 0.7344218657 0.7897131619  Biso 1.0 Ge 1 a
Ge30 1.0000000000 0.7314741109 0.8338951186 0.2875965710  Biso 1.0 Ge 1 a
Ge31 1.0000000000 0.8412407145 0.2855241407 0.7685201517  Biso 1.0 Ge 1 a
Ge32 1.0000000000 0.7562985657 0.7705860269 0.7550909113  Biso 1.0 Ge 1 a
Na33 1.0000000000 0.0269329435 0.0000099323 0.9963298187  Biso 1.0 Na 1 a
Na34 1.0000000000 0.0779226981 0.4942484128 0.9800110934  Biso 1.0 Na 1 a
Na35 1.0000000000 0.0174666631 0.0053300832 0.5110728889  Biso 1.0 Na 1 a
Na36 1.0000000000 0.5312450569 0.0082492677 0.0183646024  Biso 1.0 Na 1 a
Na37 1.0000000000 0.9973589602 0.5139727115 0.5023752598  Biso 1.0 Na 1 a
Na38 1.0000000000 0.5281196481 0.5064267641 0.9985975586  Biso 1.0 Na 1 a
Na39 1.0000000000 0.5293343289 0.9885486316 0.5139198839  Biso 1.0 Na 1 a
Na40 1.0000000000 0.4017718651 0.4801212018 0.3945031633  Biso 1.0 Na 1 a
