# AFLOW.org Repositories
# Ge8I24Na8
data_Ge8I24Na8
_pd_phase_name Ge8I24Na8
_cell_length_a  11.5786374950
_cell_length_b  11.7583460826
_cell_length_c  11.7873112821
_cell_angle_alpha  87.0377516065
_cell_angle_beta  86.0412387387
_cell_angle_gamma  85.8659415209
_symmetry_space_group_name_H-M  'P1'
_symmetry_Int_Tables_Number  1
loop_
_symmetry_equiv_pos_site_id
_symmetry_equiv_pos_as_xyz
  1  x,y,z
loop_
 _atom_site_label
 _atom_site_occupancy
 _atom_site_fract_x
 _atom_site_fract_y
 _atom_site_fract_z
 _atom_site_thermal_displace_type
 _atom_site_B_iso_or_equiv
 _atom_site_type_symbol
 _atom_site_symmetry_multiplicity
 _atom_site_Wyckoff_label
Ge1 1.0000000000 0.2482778943 0.2794120840 0.2279803838  Biso 1.0 Ge 1 a
Ge2 1.0000000000 0.7472450033 0.2552773458 0.2939153159  Biso 1.0 Ge 1 a
Ge3 1.0000000000 0.2473746976 0.7949867056 0.2259957662  Biso 1.0 Ge 1 a
Ge4 1.0000000000 0.2496010060 0.2859560637 0.7380032130  Biso 1.0 Ge 1 a
Ge5 1.0000000000 0.7601042890 0.7678639851 0.2735828732  Biso 1.0 Ge 1 a
Ge6 1.0000000000 0.7498721043 0.2336514622 0.7886914850  Biso 1.0 Ge 1 a
Ge7 1.0000000000 0.2599663242 0.7848829409 0.7248434450  Biso 1.0 Ge 1 a
Ge8 1.0000000000 0.7464716905 0.7208428218 0.7736333084  Biso 1.0 Ge 1 a
I9 1.0000000000 0.0123094635 0.3421625046 0.1948291209  Biso 1.0 I 1 a
I10 1.0000000000 0.5149421779 0.1898319448 0.3359024931  Biso 1.0 I 1 a
I11 1.0000000000 0.9894493073 0.6991533494 0.3273626399  Biso 1.0 I 1 a
I12 1.0000000000 0.9832195525 0.1872303419 0.8377903080  Biso 1.0 I 1 a
I13 1.0000000000 0.4891540899 0.8319612775 0.1858499530  Biso 1.0 I 1 a
I14 1.0000000000 0.4846128940 0.3285038399 0.6910868278  Biso 1.0 I 1 a
I15 1.0000000000 0.0199078693 0.8378234618 0.6925909132  Biso 1.0 I 1 a
I16 1.0000000000 0.5162725455 0.6873219960 0.8308199297  Biso 1.0 I 1 a
I17 1.0000000000 0.1877339864 0.0097310178 0.3182890774  Biso 1.0 I 1 a
I18 1.0000000000 0.8190025882 0.9903417262 0.1948195042  Biso 1.0 I 1 a
I19 1.0000000000 0.3287189615 0.5004279857 0.1931519399  Biso 1.0 I 1 a
I20 1.0000000000 0.3344718351 0.0011375883 0.6802154192  Biso 1.0 I 1 a
I21 1.0000000000 0.6902085747 0.4865123758 0.3405831226  Biso 1.0 I 1 a
I22 1.0000000000 0.6807666616 0.0117392709 0.8394290562  Biso 1.0 I 1 a
I23 1.0000000000 0.1890120960 0.5010806480 0.8242182987  Biso 1.0 I 1 a
I24 1.0000000000 0.8209628244 0.5020310959 0.7026453455  Biso 1.0 I 1 a
I25 1.0000000000 0.3182871691 0.2009584853 0.0122086235  Biso 1.0 I 1 a
I26 1.0000000000 0.6825888459 0.3210770744 0.0070701167  Biso 1.0 I 1 a
I27 1.0000000000 0.1882277905 0.8422081397 0.0060338819  Biso 1.0 I 1 a
I28 1.0000000000 0.1876259870 0.3389673097 0.5126736360  Biso 1.0 I 1 a
I29 1.0000000000 0.8251704628 0.6830653047 0.9951288051  Biso 1.0 I 1 a
I30 1.0000000000 0.8333564073 0.1938178960 0.5053588509  Biso 1.0 I 1 a
I31 1.0000000000 0.3180579138 0.7035566513 0.5048383434  Biso 1.0 I 1 a
I32 1.0000000000 0.6931263642 0.8323756589 0.4948272868  Biso 1.0 I 1 a
Na33 1.0000000000 0.9341394642 0.9310808357 0.9414413064  Biso 1.0 Na 1 a
Na34 1.0000000000 0.5600938999 0.0754331732 0.0821968058  Biso 1.0 Na 1 a
Na35 1.0000000000 0.9449776814 0.4379561189 0.9439514238  Biso 1.0 Na 1 a
Na36 1.0000000000 0.9500052283 0.9431795194 0.4514265043  Biso 1.0 Na 1 a
Na37 1.0000000000 0.4364531635 0.4493678866 0.9403038987  Biso 1.0 Na 1 a
Na38 1.0000000000 0.4379479529 0.9371609983 0.4370193750  Biso 1.0 Na 1 a
Na39 1.0000000000 0.9404324397 0.4541931906 0.4524468650  Biso 1.0 Na 1 a
Na40 1.0000000000 0.4310976137 0.4534745866 0.4479920093  Biso 1.0 Na 1 a
