# AFLOW.org Repositories
# Br12Mg4Na4
data_Br12Mg4Na4
_pd_phase_name Br12Mg4Na4
_cell_length_a  7.4120673494
_cell_length_b  10.2977719793
_cell_length_c  7.0239163546
_cell_angle_alpha  89.9592824631
_cell_angle_beta  89.9555665510
_cell_angle_gamma  89.9653139492
_symmetry_space_group_name_H-M  'Pnma'
_symmetry_Int_Tables_Number  62
loop_
_symmetry_equiv_pos_site_id
_symmetry_equiv_pos_as_xyz
  1  x,y,z
  2  -x+1/2,-y,z+1/2
  3  -x,y+1/2,-z
  4  x+1/2,-y+1/2,-z+1/2
  5  -x,-y,-z
  6  x+1/2,y,-z+1/2
  7  x,-y+1/2,z
  8  -x+1/2,y+1/2,z+1/2
loop_
 _atom_site_label
 _atom_site_occupancy
 _atom_site_fract_x
 _atom_site_fract_y
 _atom_site_fract_z
 _atom_site_thermal_displace_type
 _atom_site_B_iso_or_equiv
 _atom_site_type_symbol
 _atom_site_symmetry_multiplicity
 _atom_site_Wyckoff_label
Br1 1.0000000000 0.1913129259 0.4379108535 0.6871033251  Biso 1.0 Br 8 d
Br2 1.0000000000 0.0367356122 0.2500310620 0.1236865421  Biso 1.0 Br 4 c
Mg3 1.0000000000 0.9997725483 0.9998121881 0.0003502797  Biso 1.0 Mg 4 a
Na4 1.0000000000 0.9148224065 0.2533616240 0.5313722561  Biso 1.0 Na 4 c
