# AFLOW.org Repositories
# F24Na8Sn8
data_F24Na8Sn8
_pd_phase_name F24Na8Sn8
_cell_length_a  12.8335932434
_cell_length_b  12.9628940321
_cell_length_c  8.6285266150
_cell_angle_alpha  89.9963681778
_cell_angle_beta  87.0073967396
_cell_angle_gamma  89.9933631320
_symmetry_space_group_name_H-M  'Cc'
_symmetry_Int_Tables_Number  9
loop_
_symmetry_equiv_pos_site_id
_symmetry_equiv_pos_as_xyz
  1  x,y,z
  2  x,-y,z+1/2
  3  x+1/2,y+1/2,z
  4  x+1/2,-y+1/2,z+1/2
loop_
 _atom_site_label
 _atom_site_occupancy
 _atom_site_fract_x
 _atom_site_fract_y
 _atom_site_fract_z
 _atom_site_thermal_displace_type
 _atom_site_B_iso_or_equiv
 _atom_site_type_symbol
 _atom_site_symmetry_multiplicity
 _atom_site_Wyckoff_label
F1 1.0000000000 0.5821958317 0.3567414608 0.8617139326  Biso 1.0 F 4 a
F2 1.0000000000 0.4047209791 0.0372033036 0.7115037531  Biso 1.0 F 4 a
F3 1.0000000000 0.9127003979 0.0471814418 0.6784234834  Biso 1.0 F 4 a
F4 1.0000000000 0.6639258382 0.2880234722 0.2019895503  Biso 1.0 F 4 a
F5 1.0000000000 0.5707747761 0.8693209261 0.8827834780  Biso 1.0 F 4 a
F6 1.0000000000 0.3182538289 0.1225568268 0.3796541190  Biso 1.0 F 4 a
F7 1.0000000000 0.3643990333 0.6521991829 0.3228227416  Biso 1.0 F 4 a
F8 1.0000000000 0.7122588684 0.8248349839 0.1885143820  Biso 1.0 F 4 a
F9 1.0000000000 0.2970684710 0.1024062573 0.0275643770  Biso 1.0 F 4 a
F10 1.0000000000 0.5541352321 0.1450693692 0.0252954043  Biso 1.0 F 4 a
F11 1.0000000000 0.5404999854 0.6499772606 0.0282108519  Biso 1.0 F 4 a
F12 1.0000000000 0.7950185272 0.0691856603 0.9515173466  Biso 1.0 F 4 a
Na13 1.0000000000 0.9687790825 0.9987500492 0.9325172801  Biso 1.0 Na 4 a
Na14 1.0000000000 0.7219050691 0.7540438236 0.9442367650  Biso 1.0 Na 4 a
Na15 1.0000000000 0.7157373370 0.2367905151 0.9506929156  Biso 1.0 Na 4 a
Na16 1.0000000000 0.4595289285 0.0012706195 0.9602829436  Biso 1.0 Na 4 a
Sn17 1.0000000000 0.2490091541 0.9836892530 0.7304865456  Biso 1.0 Sn 4 a
Sn18 1.0000000000 0.4951235282 0.2574122206 0.7235057579  Biso 1.0 Sn 4 a
Sn19 1.0000000000 0.5077348967 0.7656615089 0.7229907417  Biso 1.0 Sn 4 a
Sn20 1.0000000000 0.7530761171 0.0133719156 0.7246633149  Biso 1.0 Sn 4 a
