# AFLOW.org Repositories
# Cl24Na8Sn8
data_Cl24Na8Sn8
_pd_phase_name Cl24Na8Sn8
_cell_length_a  10.9583232517
_cell_length_b  10.7809454969
_cell_length_c  10.8905972761
_cell_angle_alpha  83.7686768725
_cell_angle_beta  84.4654132200
_cell_angle_gamma  83.4079688993
_symmetry_space_group_name_H-M  'P1'
_symmetry_Int_Tables_Number  1
loop_
_symmetry_equiv_pos_site_id
_symmetry_equiv_pos_as_xyz
  1  x,y,z
loop_
 _atom_site_label
 _atom_site_occupancy
 _atom_site_fract_x
 _atom_site_fract_y
 _atom_site_fract_z
 _atom_site_thermal_displace_type
 _atom_site_B_iso_or_equiv
 _atom_site_type_symbol
 _atom_site_symmetry_multiplicity
 _atom_site_Wyckoff_label
Cl1 1.0000000000 0.0444184906 0.2027300196 0.3615108328  Biso 1.0 Cl 1 a
Cl2 1.0000000000 0.5451094023 0.3524170325 0.2090565665  Biso 1.0 Cl 1 a
Cl3 1.0000000000 0.9846981260 0.2399677711 0.7149303673  Biso 1.0 Cl 1 a
Cl4 1.0000000000 0.9695546628 0.8851240675 0.2038770773  Biso 1.0 Cl 1 a
Cl5 1.0000000000 0.4616772957 0.3844338381 0.7170326057  Biso 1.0 Cl 1 a
Cl6 1.0000000000 0.4724115833 0.6776236703 0.3568299431  Biso 1.0 Cl 1 a
Cl7 1.0000000000 0.0077561995 0.8168680254 0.8481814636  Biso 1.0 Cl 1 a
Cl8 1.0000000000 0.5243301217 0.8121007707 0.6718661683  Biso 1.0 Cl 1 a
Cl9 1.0000000000 0.8073657469 0.1912560709 0.0141092150  Biso 1.0 Cl 1 a
Cl10 1.0000000000 0.1554443452 0.2620196566 0.9859208262  Biso 1.0 Cl 1 a
Cl11 1.0000000000 0.7352654584 0.3930563288 0.5047036436  Biso 1.0 Cl 1 a
Cl12 1.0000000000 0.6746598067 0.8065174859 0.0250714771  Biso 1.0 Cl 1 a
Cl13 1.0000000000 0.3634332871 0.1819703636 0.4729956223  Biso 1.0 Cl 1 a
Cl14 1.0000000000 0.3489543364 0.6731609204 0.0590851369  Biso 1.0 Cl 1 a
Cl15 1.0000000000 0.8734299555 0.7207699434 0.5084791225  Biso 1.0 Cl 1 a
Cl16 1.0000000000 0.2000646850 0.8536709346 0.5428195897  Biso 1.0 Cl 1 a
Cl17 1.0000000000 0.6538493874 0.9833397003 0.3071809775  Biso 1.0 Cl 1 a
Cl18 1.0000000000 0.3153715420 0.9836538783 0.2236013596  Biso 1.0 Cl 1 a
Cl19 1.0000000000 0.7715658163 0.0298694464 0.6111939578  Biso 1.0 Cl 1 a
Cl20 1.0000000000 0.8400818780 0.4748141418 0.1531188661  Biso 1.0 Cl 1 a
Cl21 1.0000000000 0.2660831963 0.9839097547 0.8456970255  Biso 1.0 Cl 1 a
Cl22 1.0000000000 0.2108014323 0.4787372329 0.3748897670  Biso 1.0 Cl 1 a
Cl23 1.0000000000 0.7308181949 0.5063845706 0.8174661466  Biso 1.0 Cl 1 a
Cl24 1.0000000000 0.1217121023 0.5095326365 0.7273766800  Biso 1.0 Cl 1 a
Na25 1.0000000000 0.0233094150 0.0312699016 0.9686152736  Biso 1.0 Na 1 a
Na26 1.0000000000 0.4389324331 0.9087953979 0.0109082648  Biso 1.0 Na 1 a
Na27 1.0000000000 0.9779051667 0.9628295701 0.4527733619  Biso 1.0 Na 1 a
Na28 1.0000000000 0.9454609527 0.4117957422 0.9212467809  Biso 1.0 Na 1 a
Na29 1.0000000000 0.4409244029 0.9282947811 0.4525980162  Biso 1.0 Na 1 a
Na30 1.0000000000 0.6041301028 0.5611992833 0.0506876905  Biso 1.0 Na 1 a
Na31 1.0000000000 0.9808994849 0.4562058811 0.5275233761  Biso 1.0 Na 1 a
Na32 1.0000000000 0.4720037897 0.4227119216 0.4561276693  Biso 1.0 Na 1 a
Sn33 1.0000000000 0.7719726557 0.2530670093 0.2403597659  Biso 1.0 Sn 1 a
Sn34 1.0000000000 0.2630425616 0.2414255652 0.2640053315  Biso 1.0 Sn 1 a
Sn35 1.0000000000 0.6978248665 0.2920919443 0.7313216924  Biso 1.0 Sn 1 a
Sn36 1.0000000000 0.7661445366 0.7736292711 0.2554204750  Biso 1.0 Sn 1 a
Sn37 1.0000000000 0.2214899844 0.2709401438 0.7466944125  Biso 1.0 Sn 1 a
Sn38 1.0000000000 0.2516947054 0.7230507054 0.2830174397  Biso 1.0 Sn 1 a
Sn39 1.0000000000 0.7530557111 0.8048368667 0.7177307676  Biso 1.0 Sn 1 a
Sn40 1.0000000000 0.2339902691 0.7596048866 0.7725513658  Biso 1.0 Sn 1 a
