# AFLOW.org Repositories
# F12Na4Sr4
data_F12Na4Sr4
_pd_phase_name F12Na4Sr4
_cell_length_a  6.2637406047
_cell_length_b  8.4505047975
_cell_length_c  5.8027726596
_cell_angle_alpha  90.0385926129
_cell_angle_beta  89.9912941484
_cell_angle_gamma  90.0664200251
_symmetry_space_group_name_H-M  'Pnma'
_symmetry_Int_Tables_Number  62
loop_
_symmetry_equiv_pos_site_id
_symmetry_equiv_pos_as_xyz
  1  x,y,z
  2  -x+1/2,-y,z+1/2
  3  -x,y+1/2,-z
  4  x+1/2,-y+1/2,-z+1/2
  5  -x,-y,-z
  6  x+1/2,y,-z+1/2
  7  x,-y+1/2,z
  8  -x+1/2,y+1/2,z+1/2
loop_
 _atom_site_label
 _atom_site_occupancy
 _atom_site_fract_x
 _atom_site_fract_y
 _atom_site_fract_z
 _atom_site_thermal_displace_type
 _atom_site_B_iso_or_equiv
 _atom_site_type_symbol
 _atom_site_symmetry_multiplicity
 _atom_site_Wyckoff_label
F1 1.0000000000 0.9343299123 0.2504098762 0.1471463587  Biso 1.0 F 4 c
F2 1.0000000000 0.6871620372 0.9257630597 0.1851397371  Biso 1.0 F 8 d
Na3 1.0000000000 0.9992504774 0.0004907252 0.9980028273  Biso 1.0 Na 4 a
Sr4 1.0000000000 0.5795781245 0.2562417152 0.9757259827  Biso 1.0 Sr 4 c
