# AFLOW.org Repositories
# Be8F24Rb8
data_Be8F24Rb8
_pd_phase_name Be8F24Rb8
_cell_length_a  7.7751959554
_cell_length_b  10.8088037110
_cell_length_c  10.8171057966
_cell_angle_alpha  89.9998858253
_cell_angle_beta  133.7148835277
_cell_angle_gamma  90.0003396991
_symmetry_space_group_name_H-M  'P2_{1}/c'
_symmetry_Int_Tables_Number  14
loop_
_symmetry_equiv_pos_site_id
_symmetry_equiv_pos_as_xyz
  1  x,y,z
  2  -x,y+1/2,-z+1/2
  3  -x,-y,-z
  4  x,-y+1/2,z+1/2
loop_
 _atom_site_label
 _atom_site_occupancy
 _atom_site_fract_x
 _atom_site_fract_y
 _atom_site_fract_z
 _atom_site_thermal_displace_type
 _atom_site_B_iso_or_equiv
 _atom_site_type_symbol
 _atom_site_symmetry_multiplicity
 _atom_site_Wyckoff_label
Be1 1.0000000000 0.9427095181 0.5232477279 0.1608064904  Biso 1.0 Be 4 e
Be2 1.0000000000 0.6102801902 0.5336875446 0.7714526546  Biso 1.0 Be 4 e
F3 1.0000000000 0.9918304869 0.6625468689 0.1943300694  Biso 1.0 F 4 e
F4 1.0000000000 0.4948180727 0.6623905303 0.7168515967  Biso 1.0 F 4 e
F5 1.0000000000 0.7121442386 0.5021043366 0.9586161637  Biso 1.0 F 4 e
F6 1.0000000000 0.5492068952 0.9311742751 0.8502419349  Biso 1.0 F 4 e
F7 1.0000000000 0.1526032949 0.4505174069 0.1985944414  Biso 1.0 F 4 e
F8 1.0000000000 0.1159835068 0.9674718538 0.2428814418  Biso 1.0 F 4 e
Rb9 1.0000000000 0.9633903068 0.8213521229 0.9631458431  Biso 1.0 Rb 4 e
Rb10 1.0000000000 0.4619916262 0.7722925539 0.4596874136  Biso 1.0 Rb 4 e
