# AFLOW.org Repositories
# Be8Cl24Rb8
data_Be8Cl24Rb8
_pd_phase_name Be8Cl24Rb8
_cell_length_a  16.0893816382
_cell_length_b  9.5791020659
_cell_length_c  12.7950706483
_cell_angle_alpha  89.8814672602
_cell_angle_beta  144.1326784186
_cell_angle_gamma  90.0105368848
_symmetry_space_group_name_H-M  'P1'
_symmetry_Int_Tables_Number  1
loop_
_symmetry_equiv_pos_site_id
_symmetry_equiv_pos_as_xyz
  1  x,y,z
loop_
 _atom_site_label
 _atom_site_occupancy
 _atom_site_fract_x
 _atom_site_fract_y
 _atom_site_fract_z
 _atom_site_thermal_displace_type
 _atom_site_B_iso_or_equiv
 _atom_site_type_symbol
 _atom_site_symmetry_multiplicity
 _atom_site_Wyckoff_label
Be1 1.0000000000 0.2456934493 0.8397771167 0.9589199704  Biso 1.0 Be 1 a
Be2 1.0000000000 0.6254958054 0.7749138779 0.4155637229  Biso 1.0 Be 1 a
Be3 1.0000000000 0.3078398398 0.2206276895 0.9997886499  Biso 1.0 Be 1 a
Be4 1.0000000000 0.2557352525 0.6566306137 0.4708556628  Biso 1.0 Be 1 a
Be5 1.0000000000 0.7049058306 0.1339241174 0.4183224293  Biso 1.0 Be 1 a
Be6 1.0000000000 0.8707184460 0.7298352745 0.1577343837  Biso 1.0 Be 1 a
Be7 1.0000000000 0.1856346492 0.2832984403 0.3789847453  Biso 1.0 Be 1 a
Be8 1.0000000000 0.7892651582 0.3658623590 0.0007049766  Biso 1.0 Be 1 a
Cl9 1.0000000000 0.0746098577 0.7389157161 0.8364354888  Biso 1.0 Cl 1 a
Cl10 1.0000000000 0.4100310040 0.8115350757 0.2344255409  Biso 1.0 Cl 1 a
Cl11 1.0000000000 0.8388961580 0.1764041312 0.6666186923  Biso 1.0 Cl 1 a
Cl12 1.0000000000 0.0903614285 0.6969917685 0.4085420838  Biso 1.0 Cl 1 a
Cl13 1.0000000000 0.5035063101 0.1966332045 0.2717638947  Biso 1.0 Cl 1 a
Cl14 1.0000000000 0.4268911993 0.7589275819 0.6948307055  Biso 1.0 Cl 1 a
Cl15 1.0000000000 0.9936413553 0.3099996969 0.2636485776  Biso 1.0 Cl 1 a
Cl16 1.0000000000 0.6601094778 0.3070956469 0.9811840443  Biso 1.0 Cl 1 a
Cl17 1.0000000000 0.1829438792 0.0488722139 0.9080669551  Biso 1.0 Cl 1 a
Cl18 1.0000000000 0.6892478959 0.9188972949 0.3699805108  Biso 1.0 Cl 1 a
Cl19 1.0000000000 0.2176101542 0.3872981450 0.9737844198  Biso 1.0 Cl 1 a
Cl20 1.0000000000 0.2710792407 0.1070878032 0.5215910335  Biso 1.0 Cl 1 a
Cl21 1.0000000000 0.6525559142 0.5837235256 0.3856852255  Biso 1.0 Cl 1 a
Cl22 1.0000000000 0.8390805467 0.9191073311 0.0644435845  Biso 1.0 Cl 1 a
Cl23 1.0000000000 0.3147186260 0.4482855274 0.5538956835  Biso 1.0 Cl 1 a
Cl24 1.0000000000 0.7927018223 0.5830415973 0.9770740089  Biso 1.0 Cl 1 a
Cl25 1.0000000000 0.2014608959 0.6949033072 0.2680769538  Biso 1.0 Cl 1 a
Cl26 1.0000000000 0.7200696817 0.7895963035 0.6522986089  Biso 1.0 Cl 1 a
Cl27 1.0000000000 0.1716053472 0.2760140429 0.2093365103  Biso 1.0 Cl 1 a
Cl28 1.0000000000 0.2989223320 0.7917403598 0.8666797645  Biso 1.0 Cl 1 a
Cl29 1.0000000000 0.7364653857 0.2870005574 0.8085826587  Biso 1.0 Cl 1 a
Cl30 1.0000000000 0.7931758021 0.7227542706 0.2253778051  Biso 1.0 Cl 1 a
Cl31 1.0000000000 0.3128982068 0.2431133660 0.8488030512  Biso 1.0 Cl 1 a
Cl32 1.0000000000 0.7542821578 0.2217717278 0.3317664290  Biso 1.0 Cl 1 a
Rb33 1.0000000000 0.0094136053 0.9730828716 0.9980999594  Biso 1.0 Rb 1 a
Rb34 1.0000000000 0.5255739463 0.9930790201 0.6103792216  Biso 1.0 Rb 1 a
Rb35 1.0000000000 0.9402759974 0.4919264498 0.8589137748  Biso 1.0 Rb 1 a
Rb36 1.0000000000 0.0393502455 0.0239676683 0.4858629220  Biso 1.0 Rb 1 a
Rb37 1.0000000000 0.4473676219 0.4810747038 0.3966073864  Biso 1.0 Rb 1 a
Rb38 1.0000000000 0.5398767691 0.0099234275 0.9739077208  Biso 1.0 Rb 1 a
Rb39 1.0000000000 0.0256160305 0.5150506701 0.5846799005  Biso 1.0 Rb 1 a
Rb40 1.0000000000 0.5181445431 0.5202590710 0.0052305615  Biso 1.0 Rb 1 a
