# AFLOW.org Repositories
# Ca8F24Rb8
data_Ca8F24Rb8
_pd_phase_name Ca8F24Rb8
_cell_length_a  6.3524241700
_cell_length_b  9.0004547500
_cell_length_c  6.3726905540
_cell_angle_alpha  90.0304080685
_cell_angle_beta  89.9975338654
_cell_angle_gamma  90.0314505332
_symmetry_space_group_name_H-M  'Pnma'
_symmetry_Int_Tables_Number  62
loop_
_symmetry_equiv_pos_site_id
_symmetry_equiv_pos_as_xyz
  1  x,y,z
  2  -x+1/2,-y,z+1/2
  3  -x,y+1/2,-z
  4  x+1/2,-y+1/2,-z+1/2
  5  -x,-y,-z
  6  x+1/2,y,-z+1/2
  7  x,-y+1/2,z
  8  -x+1/2,y+1/2,z+1/2
loop_
 _atom_site_label
 _atom_site_occupancy
 _atom_site_fract_x
 _atom_site_fract_y
 _atom_site_fract_z
 _atom_site_thermal_displace_type
 _atom_site_B_iso_or_equiv
 _atom_site_type_symbol
 _atom_site_symmetry_multiplicity
 _atom_site_Wyckoff_label
Ca1 1.0000000000 0.0003815636 0.0001327459 0.0002670746  Biso 1.0 Ca 4 a
F2 1.0000000000 0.2721212287 0.9796884410 0.2286211412  Biso 1.0 F 8 d
F3 1.0000000000 0.0167203456 0.2500221124 0.0285903394  Biso 1.0 F 4 c
Rb4 1.0000000000 0.9960711392 0.2495377219 0.5036933329  Biso 1.0 Rb 4 c
