# AFLOW.org Repositories
# Br24Mg8Rb8
data_Br24Mg8Rb8
_pd_phase_name Br24Mg8Rb8
_cell_length_a  7.5482050496
_cell_length_b  7.5495953244
_cell_length_c  10.9264379586
_cell_angle_alpha  89.9517122353
_cell_angle_beta  89.9433301084
_cell_angle_gamma  89.9336603361
_symmetry_space_group_name_H-M  'I4/mcm'
_symmetry_Int_Tables_Number  140
loop_
_symmetry_equiv_pos_site_id
_symmetry_equiv_pos_as_xyz
  1  x,y,z
  2  -x,-y,z
  3  -y,x,z
  4  y,-x,z
  5  -x,y,-z+1/2
  6  x,-y,-z+1/2
  7  y,x,-z+1/2
  8  -y,-x,-z+1/2
  9  -x,-y,-z
  10  x,y,-z
  11  y,-x,-z
  12  -y,x,-z
  13  x,-y,z+1/2
  14  -x,y,z+1/2
  15  -y,-x,z+1/2
  16  y,x,z+1/2
  17  x+1/2,y+1/2,z+1/2
  18  -x+1/2,-y+1/2,z+1/2
  19  -y+1/2,x+1/2,z+1/2
  20  y+1/2,-x+1/2,z+1/2
  21  -x+1/2,y+1/2,-z
  22  x+1/2,-y+1/2,-z
  23  y+1/2,x+1/2,-z
  24  -y+1/2,-x+1/2,-z
  25  -x+1/2,-y+1/2,-z+1/2
  26  x+1/2,y+1/2,-z+1/2
  27  y+1/2,-x+1/2,-z+1/2
  28  -y+1/2,x+1/2,-z+1/2
  29  x+1/2,-y+1/2,z
  30  -x+1/2,y+1/2,z
  31  -y+1/2,-x+1/2,z
  32  y+1/2,x+1/2,z
loop_
 _atom_site_label
 _atom_site_occupancy
 _atom_site_fract_x
 _atom_site_fract_y
 _atom_site_fract_z
 _atom_site_thermal_displace_type
 _atom_site_B_iso_or_equiv
 _atom_site_type_symbol
 _atom_site_symmetry_multiplicity
 _atom_site_Wyckoff_label
Br1 1.0000000000 0.2904789083 0.7907383444 0.0048071077  Biso 1.0 Br 8 h
Br2 1.0000000000 0.9881646629 0.9972309125 0.2502175135  Biso 1.0 Br 4 a
Mg3 1.0000000000 0.9995440642 0.9987700661 0.9998034361  Biso 1.0 Mg 4 c
Rb4 1.0000000000 0.9990252622 0.5017101178 0.2525157085  Biso 1.0 Rb 4 b
