# AFLOW.org Repositories
# Br12Pb4Rb4
data_Br12Pb4Rb4
_pd_phase_name Br12Pb4Rb4
_cell_length_a  8.4923299010
_cell_length_b  11.6415140091
_cell_length_c  8.0383194947
_cell_angle_alpha  90.0206858830
_cell_angle_beta  89.9949692539
_cell_angle_gamma  89.9932346859
_symmetry_space_group_name_H-M  'Pnma'
_symmetry_Int_Tables_Number  62
loop_
_symmetry_equiv_pos_site_id
_symmetry_equiv_pos_as_xyz
  1  x,y,z
  2  -x+1/2,-y,z+1/2
  3  -x,y+1/2,-z
  4  x+1/2,-y+1/2,-z+1/2
  5  -x,-y,-z
  6  x+1/2,y,-z+1/2
  7  x,-y+1/2,z
  8  -x+1/2,y+1/2,z+1/2
loop_
 _atom_site_label
 _atom_site_occupancy
 _atom_site_fract_x
 _atom_site_fract_y
 _atom_site_fract_z
 _atom_site_thermal_displace_type
 _atom_site_B_iso_or_equiv
 _atom_site_type_symbol
 _atom_site_symmetry_multiplicity
 _atom_site_Wyckoff_label
Br1 1.0000000000 0.9703121230 0.2490831404 0.8928462901  Biso 1.0 Br 4 c
Br2 1.0000000000 0.8008708659 0.0553250096 0.3077012577  Biso 1.0 Br 8 d
Pb3 1.0000000000 0.9997537556 0.9992465658 0.0003473868  Biso 1.0 Pb 4 a
Rb4 1.0000000000 0.0751766077 0.2476543105 0.4725021143  Biso 1.0 Rb 4 c
