# AFLOW.org Repositories
# F12Pb4Rb4
data_F12Pb4Rb4
_pd_phase_name F12Pb4Rb4
_cell_length_a  6.8413214279
_cell_length_b  9.5261076723
_cell_length_c  6.6878379722
_cell_angle_alpha  90.0033591646
_cell_angle_beta  89.9910566602
_cell_angle_gamma  90.0070754956
_symmetry_space_group_name_H-M  'Pnma'
_symmetry_Int_Tables_Number  62
loop_
_symmetry_equiv_pos_site_id
_symmetry_equiv_pos_as_xyz
  1  x,y,z
  2  -x+1/2,-y,z+1/2
  3  -x,y+1/2,-z
  4  x+1/2,-y+1/2,-z+1/2
  5  -x,-y,-z
  6  x+1/2,y,-z+1/2
  7  x,-y+1/2,z
  8  -x+1/2,y+1/2,z+1/2
loop_
 _atom_site_label
 _atom_site_occupancy
 _atom_site_fract_x
 _atom_site_fract_y
 _atom_site_fract_z
 _atom_site_thermal_displace_type
 _atom_site_B_iso_or_equiv
 _atom_site_type_symbol
 _atom_site_symmetry_multiplicity
 _atom_site_Wyckoff_label
F1 1.0000000000 0.2951507520 0.0483007914 0.2031922419  Biso 1.0 F 8 d
F2 1.0000000000 0.9628573924 0.2498567775 0.9037956617  Biso 1.0 F 4 c
Pb3 1.0000000000 0.9999944902 0.9998362360 0.9993588800  Biso 1.0 Pb 4 a
Rb4 1.0000000000 0.0449390538 0.2507579618 0.4853099506  Biso 1.0 Rb 4 c
