# AFLOW.org Repositories
# Cl12Pb4Rb4
data_Cl12Pb4Rb4
_pd_phase_name Cl12Pb4Rb4
_cell_length_a  8.0940240958
_cell_length_b  11.1104944127
_cell_length_c  7.7265946023
_cell_angle_alpha  89.9848831978
_cell_angle_beta  89.9612630929
_cell_angle_gamma  89.9999933000
_symmetry_space_group_name_H-M  'Pnma'
_symmetry_Int_Tables_Number  62
loop_
_symmetry_equiv_pos_site_id
_symmetry_equiv_pos_as_xyz
  1  x,y,z
  2  -x+1/2,-y,z+1/2
  3  -x,y+1/2,-z
  4  x+1/2,-y+1/2,-z+1/2
  5  -x,-y,-z
  6  x+1/2,y,-z+1/2
  7  x,-y+1/2,z
  8  -x+1/2,y+1/2,z+1/2
loop_
 _atom_site_label
 _atom_site_occupancy
 _atom_site_fract_x
 _atom_site_fract_y
 _atom_site_fract_z
 _atom_site_thermal_displace_type
 _atom_site_B_iso_or_equiv
 _atom_site_type_symbol
 _atom_site_symmetry_multiplicity
 _atom_site_Wyckoff_label
Cl1 1.0000000000 0.2978256329 0.9459159213 0.8023453803  Biso 1.0 Cl 8 d
Cl2 1.0000000000 0.5355799194 0.2496783974 0.6068245196  Biso 1.0 Cl 4 c
Pb3 1.0000000000 0.0003713265 0.0000296222 0.9982790828  Biso 1.0 Pb 4 a
Rb4 1.0000000000 0.9323809996 0.2492085488 0.4738263217  Biso 1.0 Rb 4 c
