# AFLOW.org Repositories
# I12Pb4Rb4
data_I12Pb4Rb4
_pd_phase_name I12Pb4Rb4
_cell_length_a  9.0492705559
_cell_length_b  12.3717637874
_cell_length_c  8.5391860291
_cell_angle_alpha  90.0687792137
_cell_angle_beta  89.9952382399
_cell_angle_gamma  90.0042183969
_symmetry_space_group_name_H-M  'Pnma'
_symmetry_Int_Tables_Number  62
loop_
_symmetry_equiv_pos_site_id
_symmetry_equiv_pos_as_xyz
  1  x,y,z
  2  -x+1/2,-y,z+1/2
  3  -x,y+1/2,-z
  4  x+1/2,-y+1/2,-z+1/2
  5  -x,-y,-z
  6  x+1/2,y,-z+1/2
  7  x,-y+1/2,z
  8  -x+1/2,y+1/2,z+1/2
loop_
 _atom_site_label
 _atom_site_occupancy
 _atom_site_fract_x
 _atom_site_fract_y
 _atom_site_fract_z
 _atom_site_thermal_displace_type
 _atom_site_B_iso_or_equiv
 _atom_site_type_symbol
 _atom_site_symmetry_multiplicity
 _atom_site_Wyckoff_label
I1 1.0000000000 0.1962229073 0.4453107987 0.3111655660  Biso 1.0 I 8 d
I2 1.0000000000 0.0254646772 0.2498473184 0.8865978262  Biso 1.0 I 4 c
Pb3 1.0000000000 0.0021574215 0.0000164542 0.9989632915  Biso 1.0 Pb 4 a
Rb4 1.0000000000 0.9088144542 0.2527931141 0.4684348157  Biso 1.0 Rb 4 c
