# AFLOW.org Repositories
# Cl24Rb8Sn8
data_Cl24Rb8Sn8
_pd_phase_name Cl24Rb8Sn8
_cell_length_a  11.1406948060
_cell_length_b  11.2531054600
_cell_length_c  11.2829167338
_cell_angle_alpha  86.8908918706
_cell_angle_beta  89.8496186293
_cell_angle_gamma  89.6838438633
_symmetry_space_group_name_H-M  'P1'
_symmetry_Int_Tables_Number  1
loop_
_symmetry_equiv_pos_site_id
_symmetry_equiv_pos_as_xyz
  1  x,y,z
loop_
 _atom_site_label
 _atom_site_occupancy
 _atom_site_fract_x
 _atom_site_fract_y
 _atom_site_fract_z
 _atom_site_thermal_displace_type
 _atom_site_B_iso_or_equiv
 _atom_site_type_symbol
 _atom_site_symmetry_multiplicity
 _atom_site_Wyckoff_label
Cl1 1.0000000000 0.9931124251 0.7812069488 0.6699217764  Biso 1.0 Cl 1 a
Cl2 1.0000000000 0.4912468963 0.7105841086 0.8200885300  Biso 1.0 Cl 1 a
Cl3 1.0000000000 0.9808643163 0.6733764148 0.2786810398  Biso 1.0 Cl 1 a
Cl4 1.0000000000 0.9860089154 0.1728599683 0.7802961134  Biso 1.0 Cl 1 a
Cl5 1.0000000000 0.4811018200 0.8191362603 0.2190958795  Biso 1.0 Cl 1 a
Cl6 1.0000000000 0.4873819515 0.3099674355 0.7090997965  Biso 1.0 Cl 1 a
Cl7 1.0000000000 0.0142344411 0.2864203180 0.1753978430  Biso 1.0 Cl 1 a
Cl8 1.0000000000 0.5135029390 0.2024098124 0.3184088580  Biso 1.0 Cl 1 a
Cl9 1.0000000000 0.8243456754 0.7903892710 0.9676796870  Biso 1.0 Cl 1 a
Cl10 1.0000000000 0.2088546087 0.8076699451 0.0218985164  Biso 1.0 Cl 1 a
Cl11 1.0000000000 0.7044762462 0.6818304561 0.4743066220  Biso 1.0 Cl 1 a
Cl12 1.0000000000 0.6914842601 0.1853373992 0.0265387657  Biso 1.0 Cl 1 a
Cl13 1.0000000000 0.3216783415 0.7005781394 0.5288733227  Biso 1.0 Cl 1 a
Cl14 1.0000000000 0.3010845618 0.1988198586 0.9702336125  Biso 1.0 Cl 1 a
Cl15 1.0000000000 0.8019725543 0.2939011997 0.5209401515  Biso 1.0 Cl 1 a
Cl16 1.0000000000 0.1921303729 0.3014568377 0.4663637645  Biso 1.0 Cl 1 a
Cl17 1.0000000000 0.7051313658 0.0194605280 0.7005141450  Biso 1.0 Cl 1 a
Cl18 1.0000000000 0.3173994789 0.0188808964 0.6968374677  Biso 1.0 Cl 1 a
Cl19 1.0000000000 0.8003585637 0.9573333197 0.2996307815  Biso 1.0 Cl 1 a
Cl20 1.0000000000 0.8228848446 0.5161186798 0.7946160427  Biso 1.0 Cl 1 a
Cl21 1.0000000000 0.1896251354 0.0264429697 0.2929398188  Biso 1.0 Cl 1 a
Cl22 1.0000000000 0.2153093430 0.5132937101 0.8003430780  Biso 1.0 Cl 1 a
Cl23 1.0000000000 0.6866546386 0.4632328726 0.1978588238  Biso 1.0 Cl 1 a
Cl24 1.0000000000 0.3032135452 0.5324917814 0.1983615946  Biso 1.0 Cl 1 a
Rb25 1.0000000000 0.9951457392 0.0229290387 0.0438733570  Biso 1.0 Rb 1 a
Rb26 1.0000000000 0.4964292475 0.9707334020 0.9534497116  Biso 1.0 Rb 1 a
Rb27 1.0000000000 0.9933131295 0.0449732342 0.5180253885  Biso 1.0 Rb 1 a
Rb28 1.0000000000 0.0152950971 0.5469252269 0.0202938612  Biso 1.0 Rb 1 a
Rb29 1.0000000000 0.5168520174 0.9456510061 0.4811006234  Biso 1.0 Rb 1 a
Rb30 1.0000000000 0.4901628906 0.4461717532 0.9722608020  Biso 1.0 Rb 1 a
Rb31 1.0000000000 0.9998323582 0.5194922845 0.5390686568  Biso 1.0 Rb 1 a
Rb32 1.0000000000 0.4949787718 0.4677773003 0.4481138911  Biso 1.0 Rb 1 a
Sn33 1.0000000000 0.7723223049 0.7431160024 0.7484652909  Biso 1.0 Sn 1 a
Sn34 1.0000000000 0.2659206836 0.7397256841 0.7501202715  Biso 1.0 Sn 1 a
Sn35 1.0000000000 0.7531002602 0.7351094620 0.2510147323  Biso 1.0 Sn 1 a
Sn36 1.0000000000 0.7592816688 0.2402501611 0.7461587267  Biso 1.0 Sn 1 a
Sn37 1.0000000000 0.2547397574 0.7559275196 0.2459758200  Biso 1.0 Sn 1 a
Sn38 1.0000000000 0.2625239991 0.2408715784 0.7416410436  Biso 1.0 Sn 1 a
Sn39 1.0000000000 0.7362974833 0.2375441896 0.2463957110  Biso 1.0 Sn 1 a
Sn40 1.0000000000 0.2377965332 0.2515562894 0.2456470401  Biso 1.0 Sn 1 a
