# AFLOW.org Repositories
# I24Rb8Sr8
data_I24Rb8Sr8
_pd_phase_name I24Rb8Sr8
_cell_length_a  9.1486408369
_cell_length_b  12.4899992910
_cell_length_c  8.5977258078
_cell_angle_alpha  89.6258482938
_cell_angle_beta  89.9444030263
_cell_angle_gamma  90.2880521638
_symmetry_space_group_name_H-M  'Pnma'
_symmetry_Int_Tables_Number  62
loop_
_symmetry_equiv_pos_site_id
_symmetry_equiv_pos_as_xyz
  1  x,y,z
  2  -x+1/2,-y,z+1/2
  3  -x,y+1/2,-z
  4  x+1/2,-y+1/2,-z+1/2
  5  -x,-y,-z
  6  x+1/2,y,-z+1/2
  7  x,-y+1/2,z
  8  -x+1/2,y+1/2,z+1/2
loop_
 _atom_site_label
 _atom_site_occupancy
 _atom_site_fract_x
 _atom_site_fract_y
 _atom_site_fract_z
 _atom_site_thermal_displace_type
 _atom_site_B_iso_or_equiv
 _atom_site_type_symbol
 _atom_site_symmetry_multiplicity
 _atom_site_Wyckoff_label
I1 1.0000000000 0.1979338324 0.9353168083 0.3061455042  Biso 1.0 I 8 d
I2 1.0000000000 0.9631310786 0.2637246209 0.1165077877  Biso 1.0 I 4 c
Rb3 1.0000000000 0.0806469434 0.2555501184 0.5328484544  Biso 1.0 Rb 4 c
Sr4 1.0000000000 0.9997408843 0.9964018568 0.9992132690  Biso 1.0 Sr 4 a
