# AFLOW.org Repositories
# Br12Rb4Sr4
data_Br12Rb4Sr4
_pd_phase_name Br12Rb4Sr4
_cell_length_a  8.5039982507
_cell_length_b  11.6501407899
_cell_length_c  8.1008938870
_cell_angle_alpha  89.9912503443
_cell_angle_beta  89.9914793199
_cell_angle_gamma  89.9974244675
_symmetry_space_group_name_H-M  'Pnma'
_symmetry_Int_Tables_Number  62
loop_
_symmetry_equiv_pos_site_id
_symmetry_equiv_pos_as_xyz
  1  x,y,z
  2  -x+1/2,-y,z+1/2
  3  -x,y+1/2,-z
  4  x+1/2,-y+1/2,-z+1/2
  5  -x,-y,-z
  6  x+1/2,y,-z+1/2
  7  x,-y+1/2,z
  8  -x+1/2,y+1/2,z+1/2
loop_
 _atom_site_label
 _atom_site_occupancy
 _atom_site_fract_x
 _atom_site_fract_y
 _atom_site_fract_z
 _atom_site_thermal_displace_type
 _atom_site_B_iso_or_equiv
 _atom_site_type_symbol
 _atom_site_symmetry_multiplicity
 _atom_site_Wyckoff_label
Br1 1.0000000000 0.4628522962 0.2470362892 0.6071061480  Biso 1.0 Br 4 c
Br2 1.0000000000 0.2984007156 0.0558561812 0.1976074469  Biso 1.0 Br 8 d
Rb3 1.0000000000 0.0692401316 0.2480602281 0.4756096692  Biso 1.0 Rb 4 c
Sr4 1.0000000000 0.9997652966 0.9990383506 0.9997989133  Biso 1.0 Sr 4 a
