# AFLOW.org Repositories
# Ca1F3Tl1
data_Ca1F3Tl1
_pd_phase_name Ca1F3Tl1
_cell_length_a  4.5287708870
_cell_length_b  4.5131725370
_cell_length_c  4.5155372103
_cell_angle_alpha  89.9865688236
_cell_angle_beta  89.6402509897
_cell_angle_gamma  90.0998697004
_symmetry_space_group_name_H-M  'Pm-3m'
_symmetry_Int_Tables_Number  221
loop_
_symmetry_equiv_pos_site_id
_symmetry_equiv_pos_as_xyz
  1  x,y,z
  2  -x,-y,z
  3  -x,y,-z
  4  x,-y,-z
  5  z,x,y
  6  z,-x,-y
  7  -z,-x,y
  8  -z,x,-y
  9  y,z,x
  10  -y,z,-x
  11  y,-z,-x
  12  -y,-z,x
  13  y,x,-z
  14  -y,-x,-z
  15  y,-x,z
  16  -y,x,z
  17  x,z,-y
  18  -x,z,y
  19  -x,-z,-y
  20  x,-z,y
  21  z,y,-x
  22  z,-y,x
  23  -z,y,x
  24  -z,-y,-x
  25  -x,-y,-z
  26  x,y,-z
  27  x,-y,z
  28  -x,y,z
  29  -z,-x,-y
  30  -z,x,y
  31  z,x,-y
  32  z,-x,y
  33  -y,-z,-x
  34  y,-z,x
  35  -y,z,x
  36  y,z,-x
  37  -y,-x,z
  38  y,x,z
  39  -y,x,-z
  40  y,-x,-z
  41  -x,-z,y
  42  x,-z,-y
  43  x,z,y
  44  -x,z,-y
  45  -z,-y,x
  46  -z,y,-x
  47  z,-y,-x
  48  z,y,x
loop_
 _atom_site_label
 _atom_site_occupancy
 _atom_site_fract_x
 _atom_site_fract_y
 _atom_site_fract_z
 _atom_site_thermal_displace_type
 _atom_site_B_iso_or_equiv
 _atom_site_type_symbol
 _atom_site_symmetry_multiplicity
 _atom_site_Wyckoff_label
Ca1 1.0000000000 0.5000000000 0.5000000000 0.5000000000  Biso 1.0 Ca 1 b
F2 1.0000000000 0.9950026745 0.5056077800 0.4851732268  Biso 1.0 F 3 c
Tl3 1.0000000000 0.0556006858 0.9920602726 0.0211529569  Biso 1.0 Tl 1 a
