# AFLOW.org Repositories
# Ca4I12Tl4
data_Ca4I12Tl4
_pd_phase_name Ca4I12Tl4
_cell_length_a  8.7348973269
_cell_length_b  11.8901655545
_cell_length_c  8.1544100390
_cell_angle_alpha  89.9715080337
_cell_angle_beta  90.0025717497
_cell_angle_gamma  90.1064660130
_symmetry_space_group_name_H-M  'Pnma'
_symmetry_Int_Tables_Number  62
loop_
_symmetry_equiv_pos_site_id
_symmetry_equiv_pos_as_xyz
  1  x,y,z
  2  -x+1/2,-y,z+1/2
  3  -x,y+1/2,-z
  4  x+1/2,-y+1/2,-z+1/2
  5  -x,-y,-z
  6  x+1/2,y,-z+1/2
  7  x,-y+1/2,z
  8  -x+1/2,y+1/2,z+1/2
loop_
 _atom_site_label
 _atom_site_occupancy
 _atom_site_fract_x
 _atom_site_fract_y
 _atom_site_fract_z
 _atom_site_thermal_displace_type
 _atom_site_B_iso_or_equiv
 _atom_site_type_symbol
 _atom_site_symmetry_multiplicity
 _atom_site_Wyckoff_label
Ca1 1.0000000000 0.0007721395 0.9983887544 0.0020896687  Biso 1.0 Ca 4 a
I2 1.0000000000 0.1938282284 0.4383387884 0.3111921096  Biso 1.0 I 8 d
I3 1.0000000000 0.0284307622 0.2489409568 0.8726055563  Biso 1.0 I 4 c
Tl4 1.0000000000 0.9071015667 0.2423297977 0.4586466988  Biso 1.0 Tl 4 c
