# AFLOW.org Repositories
# F6Pb2Tl2
data_F6Pb2Tl2
_pd_phase_name F6Pb2Tl2
_cell_length_a  6.8581282376
_cell_length_b  6.8647787174
_cell_length_c  15.8071951372
_cell_angle_alpha  89.9084020757
_cell_angle_beta  89.8750805582
_cell_angle_gamma  119.8586477773
_symmetry_space_group_name_H-M  'R3c'
_symmetry_Int_Tables_Number  161
loop_
_symmetry_equiv_pos_site_id
_symmetry_equiv_pos_as_xyz
  1  x,y,z
  2  -y,x-y,z
  3  -x+y,-x,z
  4  -y,-x,z+1/2
  5  -x+y,y,z+1/2
  6  x,x-y,z+1/2
  7  x+2/3,y+1/3,z+1/3
  8  -y+2/3,x-y+1/3,z+1/3
  9  -x+y+2/3,-x+1/3,z+1/3
  10  -y+2/3,-x+1/3,z+5/6
  11  -x+y+2/3,y+1/3,z+5/6
  12  x+2/3,x-y+1/3,z+5/6
  13  x+1/3,y+2/3,z+2/3
  14  -y+1/3,x-y+2/3,z+2/3
  15  -x+y+1/3,-x+2/3,z+2/3
  16  -y+1/3,-x+2/3,z+1/6
  17  -x+y+1/3,y+2/3,z+1/6
  18  x+1/3,x-y+2/3,z+1/6
loop_
 _atom_site_label
 _atom_site_occupancy
 _atom_site_fract_x
 _atom_site_fract_y
 _atom_site_fract_z
 _atom_site_thermal_displace_type
 _atom_site_B_iso_or_equiv
 _atom_site_type_symbol
 _atom_site_symmetry_multiplicity
 _atom_site_Wyckoff_label
F1 1.0000000000 0.0549888223 0.7730556342 0.5147685147  Biso 1.0 F 18 b
Pb2 1.0000000000 0.0000000000 0.0000000000 0.9126680480  Biso 1.0 Pb 6 a
Tl3 1.0000000000 0.9993235803 0.9986773929 0.6486717394  Biso 1.0 Tl 6 a
