# AFLOW.org Repositories
# F24Sn8Tl8
data_F24Sn8Tl8
_pd_phase_name F24Sn8Tl8
_cell_length_a  10.3695538656
_cell_length_b  9.4397088071
_cell_length_c  9.1864854100
_cell_angle_alpha  89.6258171663
_cell_angle_beta  83.4517275344
_cell_angle_gamma  89.7345491997
_symmetry_space_group_name_H-M  'P1'
_symmetry_Int_Tables_Number  1
loop_
_symmetry_equiv_pos_site_id
_symmetry_equiv_pos_as_xyz
  1  x,y,z
loop_
 _atom_site_label
 _atom_site_occupancy
 _atom_site_fract_x
 _atom_site_fract_y
 _atom_site_fract_z
 _atom_site_thermal_displace_type
 _atom_site_B_iso_or_equiv
 _atom_site_type_symbol
 _atom_site_symmetry_multiplicity
 _atom_site_Wyckoff_label
F1 1.0000000000 0.8470976983 0.0660529722 0.2704355282  Biso 1.0 F 1 a
F2 1.0000000000 0.7301789647 0.5593803128 0.1474502562  Biso 1.0 F 1 a
F3 1.0000000000 0.7433984121 0.9459207637 0.6478467580  Biso 1.0 F 1 a
F4 1.0000000000 0.2348509604 0.9280886970 0.1521321724  Biso 1.0 F 1 a
F5 1.0000000000 0.8390840469 0.4404782643 0.7664513532  Biso 1.0 F 1 a
F6 1.0000000000 0.3386099557 0.4368144610 0.2930445766  Biso 1.0 F 1 a
F7 1.0000000000 0.3228737012 0.0549103181 0.7896063220  Biso 1.0 F 1 a
F8 1.0000000000 0.2476044156 0.5569330693 0.6918471345  Biso 1.0 F 1 a
F9 1.0000000000 0.7856577524 0.8391940619 0.9469899019  Biso 1.0 F 1 a
F10 1.0000000000 0.8055835696 0.2451571974 0.0307911630  Biso 1.0 F 1 a
F11 1.0000000000 0.7682046421 0.6473456911 0.4479583339  Biso 1.0 F 1 a
F12 1.0000000000 0.2319491817 0.6316352357 0.0486260149  Biso 1.0 F 1 a
F13 1.0000000000 0.8185546079 0.2528631335 0.5308560406  Biso 1.0 F 1 a
F14 1.0000000000 0.3273488216 0.2587658937 0.0400503168  Biso 1.0 F 1 a
F15 1.0000000000 0.3230712732 0.8166969600 0.5485277644  Biso 1.0 F 1 a
F16 1.0000000000 0.2675438502 0.2245662200 0.5456624059  Biso 1.0 F 1 a
F17 1.0000000000 0.9432518265 0.7449964563 0.1950860676  Biso 1.0 F 1 a
F18 1.0000000000 0.9453540916 0.3601539157 0.2490490593  Biso 1.0 F 1 a
F19 1.0000000000 0.9457776215 0.7464004008 0.6788787546  Biso 1.0 F 1 a
F20 1.0000000000 0.4342153746 0.7337725544 0.2052891583  Biso 1.0 F 1 a
F21 1.0000000000 0.9489224909 0.1488244880 0.7587577481  Biso 1.0 F 1 a
F22 1.0000000000 0.4355437275 0.1377264571 0.2783266202  Biso 1.0 F 1 a
F23 1.0000000000 0.4325077264 0.7475918258 0.8116924842  Biso 1.0 F 1 a
F24 1.0000000000 0.4451084090 0.3299155060 0.7296226287  Biso 1.0 F 1 a
Sn25 1.0000000000 0.7413957859 0.7558462583 0.2488974079  Biso 1.0 Sn 1 a
Sn26 1.0000000000 0.7607229778 0.2695192094 0.2664307821  Biso 1.0 Sn 1 a
Sn27 1.0000000000 0.7466737540 0.7441416156 0.7461828584  Biso 1.0 Sn 1 a
Sn28 1.0000000000 0.2324251402 0.7276698074 0.2544033089  Biso 1.0 Sn 1 a
Sn29 1.0000000000 0.7611342244 0.2338820843 0.7692453657  Biso 1.0 Sn 1 a
Sn30 1.0000000000 0.2552376218 0.2357253716 0.2717324999  Biso 1.0 Sn 1 a
Sn31 1.0000000000 0.2409969615 0.7699479242 0.7659382144  Biso 1.0 Sn 1 a
Sn32 1.0000000000 0.2518355312 0.2673642717 0.7786610133  Biso 1.0 Sn 1 a
Tl33 1.0000000000 0.9894781160 0.9955773970 0.0121474926  Biso 1.0 Tl 1 a
Tl34 1.0000000000 0.9788964184 0.5090079628 0.9996615843  Biso 1.0 Tl 1 a
Tl35 1.0000000000 0.9811560482 0.0104787769 0.5044414551  Biso 1.0 Tl 1 a
Tl36 1.0000000000 0.4729912214 0.9901448530 0.0164464941  Biso 1.0 Tl 1 a
Tl37 1.0000000000 0.9850796354 0.5025134304 0.5085294952  Biso 1.0 Tl 1 a
Tl38 1.0000000000 0.4809524222 0.5120061095 0.0087176515  Biso 1.0 Tl 1 a
Tl39 1.0000000000 0.4890375572 0.0313491860 0.5364814636  Biso 1.0 Tl 1 a
Tl40 1.0000000000 0.4688482802 0.5281047535 0.5160179982  Biso 1.0 Tl 1 a
