# AFLOW.org Repositories
# Be8Cl24Cs8
data_Be8Cl24Cs8
_pd_phase_name Be8Cl24Cs8
_cell_length_a  11.3196900200
_cell_length_b  10.8937446248
_cell_length_c  11.3069830773
_cell_angle_alpha  87.9494727782
_cell_angle_beta  82.5530414527
_cell_angle_gamma  87.4986771651
_symmetry_space_group_name_H-M  'P1'
_symmetry_Int_Tables_Number  1
loop_
_symmetry_equiv_pos_site_id
_symmetry_equiv_pos_as_xyz
  1  x,y,z
loop_
 _atom_site_label
 _atom_site_occupancy
 _atom_site_fract_x
 _atom_site_fract_y
 _atom_site_fract_z
 _atom_site_thermal_displace_type
 _atom_site_B_iso_or_equiv
 _atom_site_type_symbol
Be1 1.0000000000 0.1986055187 0.1654474432 0.2057524180  Biso 1.0 Be
Be2 1.0000000000 0.6932064468 0.3257204929 0.1869503710  Biso 1.0 Be
Be3 1.0000000000 0.1737504642 0.6603319244 0.2877500282  Biso 1.0 Be
Be4 1.0000000000 0.1883031359 0.3428318871 0.6953844591  Biso 1.0 Be
Be5 1.0000000000 0.7041956822 0.8317560698 0.3246284788  Biso 1.0 Be
Be6 1.0000000000 0.6524834267 0.2733540773 0.6715280552  Biso 1.0 Be
Be7 1.0000000000 0.3221628810 0.8379269231 0.7915719111  Biso 1.0 Be
Be8 1.0000000000 0.8220295215 0.7676047270 0.8381334341  Biso 1.0 Be
Cl9 1.0000000000 0.0403109436 0.2270752243 0.2644957876  Biso 1.0 Cl
Cl10 1.0000000000 0.5389840419 0.2683094305 0.2527636151  Biso 1.0 Cl
Cl11 1.0000000000 0.0410003584 0.7289022754 0.2140439638  Biso 1.0 Cl
Cl12 1.0000000000 0.0384282142 0.2772446226 0.7643973048  Biso 1.0 Cl
Cl13 1.0000000000 0.5477491091 0.7967934077 0.2860279663  Biso 1.0 Cl
Cl14 1.0000000000 0.5242435933 0.1958547402 0.7707531462  Biso 1.0 Cl
Cl15 1.0000000000 0.9497834478 0.6756641479 0.7486104429  Biso 1.0 Cl
Cl16 1.0000000000 0.4606687821 0.7657624158 0.6989596059  Biso 1.0 Cl
Cl17 1.0000000000 0.2708240946 0.0310732180 0.2891663146  Biso 1.0 Cl
Cl18 1.0000000000 0.7865945053 0.9660144029 0.2408541265  Biso 1.0 Cl
Cl19 1.0000000000 0.2794336298 0.5353331197 0.2121719889  Biso 1.0 Cl
Cl20 1.0000000000 0.2166681298 0.9529541447 0.7184041521  Biso 1.0 Cl
Cl21 1.0000000000 0.7597874733 0.4591145498 0.2599714382  Biso 1.0 Cl
Cl22 1.0000000000 0.8043477656 0.9427894398 0.8082370396  Biso 1.0 Cl
Cl23 1.0000000000 0.2571001038 0.4718943926 0.7722057645  Biso 1.0 Cl
Cl24 1.0000000000 0.6757387175 0.4460659818 0.6878217799  Biso 1.0 Cl
Cl25 1.0000000000 0.2665398877 0.2131894662 0.0464130386  Biso 1.0 Cl
Cl26 1.0000000000 0.7661135738 0.2676642977 0.0342344847  Biso 1.0 Cl
Cl27 1.0000000000 0.2979211777 0.8082141282 0.9616688910  Biso 1.0 Cl
Cl28 1.0000000000 0.2537703498 0.2979633332 0.5363394777  Biso 1.0 Cl
Cl29 1.0000000000 0.7272845236 0.6931983555 0.9732397275  Biso 1.0 Cl
Cl30 1.0000000000 0.7433445441 0.1897368594 0.5406312508  Biso 1.0 Cl
Cl31 1.0000000000 0.1843675150 0.6948516378 0.4521841869  Biso 1.0 Cl
Cl32 1.0000000000 0.7565518960 0.7556487671 0.4656681060  Biso 1.0 Cl
Cs33 1.0000000000 0.0241318854 0.0119273975 0.9945598805  Biso 1.0 Cs
Cs34 1.0000000000 0.5445119905 0.0083011560 0.0412726149  Biso 1.0 Cs
Cs35 1.0000000000 0.0101790540 0.4832420204 0.0138292986  Biso 1.0 Cs
Cs36 1.0000000000 0.9898270069 0.9607096879 0.5013982298  Biso 1.0 Cs
Cs37 1.0000000000 0.4829888684 0.5036736182 0.9499004678  Biso 1.0 Cs
Cs38 1.0000000000 0.4680916034 0.0367945072 0.5071664289  Biso 1.0 Cs
Cs39 1.0000000000 0.9426732403 0.4662456390 0.4965756399  Biso 1.0 Cs
Cs40 1.0000000000 0.4678098728 0.5341135324 0.4664112198  Biso 1.0 Cs
