# AFLOW.org Repositories
# Be8Cs8F24
data_Be8Cs8F24
_pd_phase_name Be8Cs8F24
_cell_length_a  8.2226628364
_cell_length_b  8.1162468088
_cell_length_c  11.0650356135
_cell_angle_alpha  89.6479465787
_cell_angle_beta  89.8915369429
_cell_angle_gamma  89.0980361187
_symmetry_space_group_name_H-M  'P1'
_symmetry_Int_Tables_Number  1
loop_
_symmetry_equiv_pos_site_id
_symmetry_equiv_pos_as_xyz
  1  x,y,z
loop_
 _atom_site_label
 _atom_site_occupancy
 _atom_site_fract_x
 _atom_site_fract_y
 _atom_site_fract_z
 _atom_site_thermal_displace_type
 _atom_site_B_iso_or_equiv
 _atom_site_type_symbol
Be1 1.0000000000 0.7833587265 0.6841237431 0.2032156019  Biso 1.0 Be
Be2 1.0000000000 0.1307899630 0.7871167315 0.2414571767  Biso 1.0 Be
Be3 1.0000000000 0.7857210931 0.2959274666 0.2599564986  Biso 1.0 Be
Be4 1.0000000000 0.7280075815 0.7945604584 0.6988167711  Biso 1.0 Be
Be5 1.0000000000 0.1322897232 0.1846433822 0.2177311989  Biso 1.0 Be
Be6 1.0000000000 0.3720285180 0.8024857463 0.7434899815  Biso 1.0 Be
Be7 1.0000000000 0.7269429779 0.1824639547 0.7580282812  Biso 1.0 Be
Be8 1.0000000000 0.3717061356 0.1974661224 0.7216324665  Biso 1.0 Be
Cs9 1.0000000000 0.0130204269 0.9540800463 0.9435983281  Biso 1.0 Cs
Cs10 1.0000000000 0.4949508291 0.9784425512 0.0405983021  Biso 1.0 Cs
Cs11 1.0000000000 0.0049763946 0.4605170459 0.9310517222  Biso 1.0 Cs
Cs12 1.0000000000 0.0197460550 0.0105380147 0.5166515543  Biso 1.0 Cs
Cs13 1.0000000000 0.4742715154 0.4810648113 0.0151618670  Biso 1.0 Cs
Cs14 1.0000000000 0.4959579703 0.0082249568 0.4231300968  Biso 1.0 Cs
Cs15 1.0000000000 0.0141243915 0.5061921736 0.5293541234  Biso 1.0 Cs
Cs16 1.0000000000 0.4857860704 0.5091260517 0.4542180148  Biso 1.0 Cs
F17 1.0000000000 0.9366751419 0.7713989801 0.2617606717  Biso 1.0 F
F18 1.0000000000 0.6247508595 0.7473223154 0.2593819140  Biso 1.0 F
F19 1.0000000000 0.9389341892 0.2093185158 0.1964007708  Biso 1.0 F
F20 1.0000000000 0.2813162489 0.7368318593 0.8530540192  Biso 1.0 F
F21 1.0000000000 0.1888126816 0.2626643321 0.3335845843  Biso 1.0 F
F22 1.0000000000 0.5605990032 0.7466597168 0.7606948381  Biso 1.0 F
F23 1.0000000000 0.8729362599 0.2698861705 0.7051881516  Biso 1.0 F
F24 1.0000000000 0.5608589294 0.2411954951 0.6970369814  Biso 1.0 F
F25 1.0000000000 0.6271452217 0.2391243968 0.2035763230  Biso 1.0 F
F26 1.0000000000 0.1577684588 0.9857029900 0.2330083373  Biso 1.0 F
F27 1.0000000000 0.8064128164 0.4908685144 0.2349736132  Biso 1.0 F
F28 1.0000000000 0.7496670613 0.9896007157 0.7232330835  Biso 1.0 F
F29 1.0000000000 0.2153246149 0.7291839414 0.3562503852  Biso 1.0 F
F30 1.0000000000 0.3708746820 0.0024853264 0.7543230865  Biso 1.0 F
F31 1.0000000000 0.8728198731 0.7069362005 0.7565316482  Biso 1.0 F
F32 1.0000000000 0.3042154312 0.2885174933 0.8294771300  Biso 1.0 F
F33 1.0000000000 0.7819973531 0.7080641622 0.0655660314  Biso 1.0 F
F34 1.0000000000 0.1862117838 0.7133320480 0.1228018264  Biso 1.0 F
F35 1.0000000000 0.7166909791 0.1964735692 0.8959048647  Biso 1.0 F
F36 1.0000000000 0.7209438254 0.7694660695 0.5616627119  Biso 1.0 F
F37 1.0000000000 0.2176381116 0.2311885815 0.1004003619  Biso 1.0 F
F38 1.0000000000 0.3091483884 0.7567779934 0.6197722128  Biso 1.0 F
F39 1.0000000000 0.7871959998 0.2655496481 0.3969277986  Biso 1.0 F
F40 1.0000000000 0.2854797648 0.2287608474 0.6015401552  Biso 1.0 F
