# AFLOW.org Repositories
# Be4Br12Cs4
data_Be4Br12Cs4
_pd_phase_name Be4Br12Cs4
_cell_length_a  11.1046427174
_cell_length_b  7.7698228460
_cell_length_c  9.3734256263
_cell_angle_alpha  85.0113868757
_cell_angle_beta  89.9990799361
_cell_angle_gamma  89.9939780259
_symmetry_space_group_name_H-M  'P1'
_symmetry_Int_Tables_Number  1
loop_
_symmetry_equiv_pos_site_id
_symmetry_equiv_pos_as_xyz
  1  x,y,z
loop_
 _atom_site_label
 _atom_site_occupancy
 _atom_site_fract_x
 _atom_site_fract_y
 _atom_site_fract_z
 _atom_site_thermal_displace_type
 _atom_site_B_iso_or_equiv
 _atom_site_type_symbol
Be1 1.0000000000 0.1608082693 0.5773069347 0.8716783409  Biso 1.0 Be
Be2 1.0000000000 0.6598658912 0.4183933572 0.1204551673  Biso 1.0 Be
Be3 1.0000000000 0.3599072513 0.0770365201 0.3723417580  Biso 1.0 Be
Be4 1.0000000000 0.8598028926 0.9194319526 0.6205426487  Biso 1.0 Be
Br5 1.0000000000 0.0332980047 0.5685793754 0.0353982264  Biso 1.0 Br
Br6 1.0000000000 0.5326878603 0.4294246404 0.9564065170  Biso 1.0 Br
Br7 1.0000000000 0.9873461543 0.9288782394 0.4565736694  Biso 1.0 Br
Br8 1.0000000000 0.4878646509 0.0672018812 0.5353949357  Biso 1.0 Br
Br9 1.0000000000 0.2713018595 0.3072015678 0.3077766904  Biso 1.0 Br
Br10 1.0000000000 0.7471024542 0.1871288660 0.1853079593  Biso 1.0 Br
Br11 1.0000000000 0.2491030229 0.8072501730 0.8054755861  Biso 1.0 Br
Br12 1.0000000000 0.7721882165 0.6887593228 0.6872946537  Biso 1.0 Br
Br13 1.0000000000 0.1924519638 0.3606320404 0.7597056398  Biso 1.0 Br
Br14 1.0000000000 0.8275429524 0.1363817097 0.7322682949  Biso 1.0 Br
Br15 1.0000000000 0.3279738292 0.8613612968 0.2594186743  Biso 1.0 Br
Br16 1.0000000000 0.6926005118 0.6335236372 0.2336838525  Biso 1.0 Br
Cs17 1.0000000000 0.0543079935 0.0590614683 0.0474346599  Biso 1.0 Cs
Cs18 1.0000000000 0.5549636177 0.9373853067 0.9450119779  Biso 1.0 Cs
Cs19 1.0000000000 0.9666078475 0.4399755464 0.4442064820  Biso 1.0 Cs
Cs20 1.0000000000 0.4660433664 0.5572666461 0.5491834714  Biso 1.0 Cs
