# AFLOW.org Repositories
# Ca4Cs4I12
data_Ca4Cs4I12
_pd_phase_name Ca4Cs4I12
_cell_length_a  8.8148214040
_cell_length_b  8.6231573810
_cell_length_c  12.3889536190
_cell_angle_alpha  90.0000000000
_cell_angle_beta  90.0000000000
_cell_angle_gamma  90.0000000000
_symmetry_space_group_name_H-M  'P1'
_symmetry_Int_Tables_Number  1
loop_
_symmetry_equiv_pos_site_id
_symmetry_equiv_pos_as_xyz
  1  x,y,z
loop_
 _atom_site_label
 _atom_site_occupancy
 _atom_site_fract_x
 _atom_site_fract_y
 _atom_site_fract_z
 _atom_site_thermal_displace_type
 _atom_site_B_iso_or_equiv
 _atom_site_type_symbol
Ca1 1.0000000000 0.0022395337 0.5039805071 0.2498437386  Biso 1.0 Ca
Ca2 1.0000000000 0.0017465164 0.5041858426 0.7499626979  Biso 1.0 Ca
Ca3 1.0000000000 0.5022839814 0.0039632293 0.2492822045  Biso 1.0 Ca
Ca4 1.0000000000 0.5018315854 0.0040520877 0.7493791240  Biso 1.0 Ca
Cs5 1.0000000000 0.9489851997 0.9889717320 0.9995991898  Biso 1.0 Cs
Cs6 1.0000000000 0.0574216501 0.0209692972 0.4998824033  Biso 1.0 Cs
Cs7 1.0000000000 0.4483295190 0.5190108324 0.9989311229  Biso 1.0 Cs
Cs8 1.0000000000 0.5588088464 0.4893504703 0.4990174239  Biso 1.0 Cs
I9 1.0000000000 0.0059984301 0.4408106465 0.9997507950  Biso 1.0 I
I10 1.0000000000 0.9977940388 0.5672646878 0.4997995973  Biso 1.0 I
I11 1.0000000000 0.5103720613 0.0661485979 0.9997393001  Biso 1.0 I
I12 1.0000000000 0.4943803352 0.9419559601 0.4998971068  Biso 1.0 I
I13 1.0000000000 0.7940551736 0.2108704480 0.2818616557  Biso 1.0 I
I14 1.0000000000 0.7936096841 0.2113201267 0.7171323530  Biso 1.0 I
I15 1.0000000000 0.2106967544 0.7967916630 0.2169084947  Biso 1.0 I
I16 1.0000000000 0.2096986332 0.7975699997 0.7827350459  Biso 1.0 I
I17 1.0000000000 0.2950183697 0.2977926978 0.2812554544  Biso 1.0 I
I18 1.0000000000 0.2953653501 0.2992279238 0.7176877881  Biso 1.0 I
I19 1.0000000000 0.7106640649 0.7105453663 0.2185627982  Biso 1.0 I
I20 1.0000000000 0.7102345462 0.7107170053 0.7794083501  Biso 1.0 I
