# AFLOW.org Repositories
# Br12Ca4Cs4
data_Br12Ca4Cs4
_pd_phase_name Br12Ca4Cs4
_cell_length_a  8.1352486785
_cell_length_b  8.1451183333
_cell_length_c  11.5039769025
_cell_angle_alpha  89.9844294601
_cell_angle_beta  89.9575780391
_cell_angle_gamma  89.5887820055
_symmetry_space_group_name_H-M  'P1'
_symmetry_Int_Tables_Number  1
loop_
_symmetry_equiv_pos_site_id
_symmetry_equiv_pos_as_xyz
  1  x,y,z
loop_
 _atom_site_label
 _atom_site_occupancy
 _atom_site_fract_x
 _atom_site_fract_y
 _atom_site_fract_z
 _atom_site_thermal_displace_type
 _atom_site_B_iso_or_equiv
 _atom_site_type_symbol
Br1 1.0000000000 0.9839339981 0.5426731460 0.9949722176  Biso 1.0 Br
Br2 1.0000000000 0.0147757744 0.4650023937 0.4950936306  Biso 1.0 Br
Br3 1.0000000000 0.5067187730 0.9650151770 0.9950013455  Biso 1.0 Br
Br4 1.0000000000 0.4893744621 0.0438265937 0.4949376414  Biso 1.0 Br
Br5 1.0000000000 0.2716802490 0.2778745448 0.7708883996  Biso 1.0 Br
Br6 1.0000000000 0.2679146040 0.2736144493 0.2184907422  Biso 1.0 Br
Br7 1.0000000000 0.7266303532 0.7315209713 0.7197161398  Biso 1.0 Br
Br8 1.0000000000 0.7282005096 0.7330780589 0.2702554868  Biso 1.0 Br
Br9 1.0000000000 0.7730518603 0.2310067505 0.7586704290  Biso 1.0 Br
Br10 1.0000000000 0.7695969829 0.2330183188 0.2313708742  Biso 1.0 Br
Br11 1.0000000000 0.2252385637 0.7784502410 0.7309930430  Biso 1.0 Br
Br12 1.0000000000 0.2276690137 0.7746693068 0.2593067517  Biso 1.0 Br
Ca13 1.0000000000 -0.0001139155 0.5051212775 0.7452276717  Biso 1.0 Ca
Ca14 1.0000000000 0.9991734631 0.5043247962 0.2448815510  Biso 1.0 Ca
Ca15 1.0000000000 0.4993683057 0.0049285590 0.7452218559  Biso 1.0 Ca
Ca16 1.0000000000 0.4986650151 0.0041928163 0.2447629990  Biso 1.0 Ca
Cs17 1.0000000000 0.0116458070 0.0086297380 0.9953934917  Biso 1.0 Cs
Cs18 1.0000000000 0.9861358495 0.0036596309 0.4943909543  Biso 1.0 Cs
Cs19 1.0000000000 0.5146180211 0.5027591435 0.9954961364  Biso 1.0 Cs
Cs20 1.0000000000 0.4848822772 0.5049888009 0.4952566193  Biso 1.0 Cs
