# AFLOW.org Repositories
# Ca1Cs1F3
data_Ca1Cs1F3
_pd_phase_name Ca1Cs1F3
_cell_length_a  4.5738901560
_cell_length_b  4.5738901560
_cell_length_c  4.5738901560
_cell_angle_alpha  90.0000000000
_cell_angle_beta  90.0000000000
_cell_angle_gamma  90.0000000000
_symmetry_space_group_name_H-M  'P1'
_symmetry_Int_Tables_Number  1
loop_
_symmetry_equiv_pos_site_id
_symmetry_equiv_pos_as_xyz
  1  x,y,z
loop_
 _atom_site_label
 _atom_site_occupancy
 _atom_site_fract_x
 _atom_site_fract_y
 _atom_site_fract_z
 _atom_site_thermal_displace_type
 _atom_site_B_iso_or_equiv
 _atom_site_type_symbol
Ca1 1.0000000000 0.5000000157 0.4999999808 0.4999999655  Biso 1.0 Ca
Cs2 1.0000000000 0.9999999681 0.9999999987 0.9999999812  Biso 1.0 Cs
F3 1.0000000000 0.4999999961 0.9999999571 0.4999999895  Biso 1.0 F
F4 1.0000000000 0.0000000000 0.5000000136 0.4999999873  Biso 1.0 F
F5 1.0000000000 0.4999999873 0.5000000092 0.9999999790  Biso 1.0 F
