# AFLOW.org Repositories
# Cl24Cs8Ge8
data_Cl24Cs8Ge8
_pd_phase_name Cl24Cs8Ge8
_cell_length_a  11.1290885560
_cell_length_b  11.0937210867
_cell_length_c  11.2388549043
_cell_angle_alpha  89.9796287097
_cell_angle_beta  88.4218350490
_cell_angle_gamma  89.9382167944
_symmetry_space_group_name_H-M  'P1'
_symmetry_Int_Tables_Number  1
loop_
_symmetry_equiv_pos_site_id
_symmetry_equiv_pos_as_xyz
  1  x,y,z
loop_
 _atom_site_label
 _atom_site_occupancy
 _atom_site_fract_x
 _atom_site_fract_y
 _atom_site_fract_z
 _atom_site_thermal_displace_type
 _atom_site_B_iso_or_equiv
 _atom_site_type_symbol
Cl1 1.0000000000 0.7951964311 0.0375666935 0.2696199283  Biso 1.0 Cl
Cl2 1.0000000000 0.7010809610 0.5375470883 0.2407178639  Biso 1.0 Cl
Cl3 1.0000000000 0.7633943175 0.9807041336 0.7407827536  Biso 1.0 Cl
Cl4 1.0000000000 0.2034235772 0.9675529527 0.2307695633  Biso 1.0 Cl
Cl5 1.0000000000 0.7375142992 0.4803619408 0.7660211618  Biso 1.0 Cl
Cl6 1.0000000000 0.2947055680 0.4677907882 0.2778073388  Biso 1.0 Cl
Cl7 1.0000000000 0.2221949231 0.9740956823 0.7619814385  Biso 1.0 Cl
Cl8 1.0000000000 0.2749686775 0.4738128123 0.7519620771  Biso 1.0 Cl
Cl9 1.0000000000 0.7380493489 0.7695041956 0.0283662568  Biso 1.0 Cl
Cl10 1.0000000000 0.7613542917 0.2478033382 0.9789618486  Biso 1.0 Cl
Cl11 1.0000000000 0.7557682011 0.7465992044 0.5295469593  Biso 1.0 Cl
Cl12 1.0000000000 0.2547735451 0.7291662632 0.0289508068  Biso 1.0 Cl
Cl13 1.0000000000 0.7386958054 0.2667353763 0.4814233365  Biso 1.0 Cl
Cl14 1.0000000000 0.2377920148 0.2582902212 0.9812371793  Biso 1.0 Cl
Cl15 1.0000000000 0.2425292836 0.7579856909 0.5312558688  Biso 1.0 Cl
Cl16 1.0000000000 0.2609029694 0.2276480596 0.4823482594  Biso 1.0 Cl
Cl17 1.0000000000 0.0213652856 0.7073656473 0.2491491328  Biso 1.0 Cl
Cl18 1.0000000000 0.9759757456 0.2982111836 0.2679745992  Biso 1.0 Cl
Cl19 1.0000000000 0.0217119670 0.7276305505 0.7615145359  Biso 1.0 Cl
Cl20 1.0000000000 0.5211689092 0.8006185629 0.2623228831  Biso 1.0 Cl
Cl21 1.0000000000 0.9766215299 0.2693028991 0.7434908503  Biso 1.0 Cl
Cl22 1.0000000000 0.4776542508 0.2085472974 0.2462135609  Biso 1.0 Cl
Cl23 1.0000000000 0.5232333094 0.7702720273 0.7466774389  Biso 1.0 Cl
Cl24 1.0000000000 0.4765138712 0.2299758372 0.7689984291  Biso 1.0 Cl
Cs25 1.0000000000 0.9905549874 0.0025568153 0.9977240693  Biso 1.0 Cs
Cs26 1.0000000000 0.9925345446 0.4989120068 0.0007146491  Biso 1.0 Cs
Cs27 1.0000000000 0.0053438787 0.0063136110 0.5082979948  Biso 1.0 Cs
Cs28 1.0000000000 0.4899242867 0.9962839032 0.0007647452  Biso 1.0 Cs
Cs29 1.0000000000 0.0076092195 0.5076219946 0.5128026865  Biso 1.0 Cs
Cs30 1.0000000000 0.4929420861 0.4949270625 0.0023136196  Biso 1.0 Cs
Cs31 1.0000000000 0.5089036996 0.0083395425 0.5122011088  Biso 1.0 Cs
Cs32 1.0000000000 0.5064598403 0.5102846750 0.5125088271  Biso 1.0 Cs
Ge33 1.0000000000 0.7301022577 0.7517705096 0.2413830193  Biso 1.0 Ge
Ge34 1.0000000000 0.7658253301 0.2520204046 0.2694412783  Biso 1.0 Ge
Ge35 1.0000000000 0.7396819103 0.7650118843 0.7417610090  Biso 1.0 Ge
Ge36 1.0000000000 0.2313039343 0.7534171041 0.2406786715  Biso 1.0 Ge
Ge37 1.0000000000 0.7609086664 0.2648523041 0.7659560576  Biso 1.0 Ge
Ge38 1.0000000000 0.2681405147 0.2535503889 0.2702306172  Biso 1.0 Ge
Ge39 1.0000000000 0.2351756663 0.7587567587 0.7448355001  Biso 1.0 Ge
Ge40 1.0000000000 0.2622367485 0.2584559516 0.7686536386  Biso 1.0 Ge
