# AFLOW.org Repositories
# Cs8F24Ge8
data_Cs8F24Ge8
_pd_phase_name Cs8F24Ge8
_cell_length_a  9.8529142262
_cell_length_b  10.1126286301
_cell_length_c  10.2152235817
_cell_angle_alpha  83.6547074388
_cell_angle_beta  89.2586554045
_cell_angle_gamma  89.8392462002
_symmetry_space_group_name_H-M  'P1'
_symmetry_Int_Tables_Number  1
loop_
_symmetry_equiv_pos_site_id
_symmetry_equiv_pos_as_xyz
  1  x,y,z
loop_
 _atom_site_label
 _atom_site_occupancy
 _atom_site_fract_x
 _atom_site_fract_y
 _atom_site_fract_z
 _atom_site_thermal_displace_type
 _atom_site_B_iso_or_equiv
 _atom_site_type_symbol
Cs1 1.0000000000 0.9924088681 0.0327292072 1.0091743616  Biso 1.0 Cs
Cs2 1.0000000000 0.5091724730 0.9811233116 0.9762327564  Biso 1.0 Cs
Cs3 1.0000000000 -0.0140641311 0.0326249663 0.5063467094  Biso 1.0 Cs
Cs4 1.0000000000 0.9795356337 0.5522853261 0.0178191658  Biso 1.0 Cs
Cs5 1.0000000000 0.4927058056 0.9888715669 0.4746663411  Biso 1.0 Cs
Cs6 1.0000000000 0.4712117041 0.4708254711 0.9611529707  Biso 1.0 Cs
Cs7 1.0000000000 0.0328639586 0.5283374472 0.5318797766  Biso 1.0 Cs
Cs8 1.0000000000 0.5266063990 0.4736389118 0.4524884479  Biso 1.0 Cs
F9 1.0000000000 0.9111968236 0.2715082827 0.1532909429  Biso 1.0 F
F10 1.0000000000 0.4205287401 0.2509877948 0.2803779188  Biso 1.0 F
F11 1.0000000000 0.0928700238 0.1708722425 0.7385533389  Biso 1.0 F
F12 1.0000000000 0.0681705387 0.7113376291 0.2641122295  Biso 1.0 F
F13 1.0000000000 0.5939095760 0.3448367271 0.7274177672  Biso 1.0 F
F14 1.0000000000 0.5760310215 0.8301061535 0.2449108667  Biso 1.0 F
F15 1.0000000000 0.9052998644 0.7641195431 0.6458813603  Biso 1.0 F
F16 1.0000000000 0.4076198267 0.7517125316 0.8357828165  Biso 1.0 F
F17 1.0000000000 0.6707763130 0.2112486950 0.0527267918  Biso 1.0 F
F18 1.0000000000 0.2715288352 0.1618481201 0.0848114856  Biso 1.0 F
F19 1.0000000000 0.8057421470 0.3104895602 0.5621885348  Biso 1.0 F
F20 1.0000000000 0.7871866882 0.8076001300 0.0758571119  Biso 1.0 F
F21 1.0000000000 0.2629429337 0.3103771737 0.5641770661  Biso 1.0 F
F22 1.0000000000 0.1514295042 0.8117838247 0.9095944191  Biso 1.0 F
F23 1.0000000000 0.6466995094 0.7216984129 0.5688748340  Biso 1.0 F
F24 1.0000000000 0.2940694803 0.6578989939 0.4071391561  Biso 1.0 F
F25 1.0000000000 0.8169025206 0.9426495193 0.2881580662  Biso 1.0 F
F26 1.0000000000 0.2183386726 0.9136382112 0.3477158486  Biso 1.0 F
F27 1.0000000000 0.7061926924 0.9355959109 0.6958431544  Biso 1.0 F
F28 1.0000000000 0.6950037604 0.4371634366 0.1718247650  Biso 1.0 F
F29 1.0000000000 0.3507895862 0.0837815792 0.7111406789  Biso 1.0 F
F30 1.0000000000 0.2368953113 0.4141535732 0.1492068587  Biso 1.0 F
F31 1.0000000000 0.8447543604 0.4352344940 0.7804663102  Biso 1.0 F
F32 1.0000000000 0.1996732521 0.5894181939 0.7908838483  Biso 1.0 F
Ge33 1.0000000000 0.7310481291 0.2546709405 0.2155226357  Biso 1.0 Ge
Ge34 1.0000000000 0.2359952047 0.2422671959 0.2389645410  Biso 1.0 Ge
Ge35 1.0000000000 0.7702521429 0.2737636142 0.7445695561  Biso 1.0 Ge
Ge36 1.0000000000 0.7577194684 0.7725137227 0.2591402949  Biso 1.0 Ge
Ge37 1.0000000000 0.2677765230 0.2440421413 0.7422440536  Biso 1.0 Ge
Ge38 1.0000000000 0.2496782926 0.7666500754 0.2535024392  Biso 1.0 Ge
Ge39 1.0000000000 0.7318288915 0.7505614914 0.7256964966  Biso 1.0 Ge
Ge40 1.0000000000 0.2377491609 0.7718280776 0.7547803178  Biso 1.0 Ge
