# AFLOW.org Repositories
# Br24Cs8Ge8
data_Br24Cs8Ge8
_pd_phase_name Br24Cs8Ge8
_cell_length_a  11.6038631683
_cell_length_b  11.5869669298
_cell_length_c  11.6007414814
_cell_angle_alpha  89.8192943468
_cell_angle_beta  90.0146575112
_cell_angle_gamma  89.9197102608
_symmetry_space_group_name_H-M  'P1'
_symmetry_Int_Tables_Number  1
loop_
_symmetry_equiv_pos_site_id
_symmetry_equiv_pos_as_xyz
  1  x,y,z
loop_
 _atom_site_label
 _atom_site_occupancy
 _atom_site_fract_x
 _atom_site_fract_y
 _atom_site_fract_z
 _atom_site_thermal_displace_type
 _atom_site_B_iso_or_equiv
 _atom_site_type_symbol
Br1 1.0000000000 0.0123734883 0.7331274080 0.7698729741  Biso 1.0 Br
Br2 1.0000000000 0.5128669929 0.7508509442 0.7340846605  Biso 1.0 Br
Br3 1.0000000000 0.0219518385 0.7127652167 0.2155593423  Biso 1.0 Br
Br4 1.0000000000 0.0168920689 0.2684807286 0.7320151816  Biso 1.0 Br
Br5 1.0000000000 0.5226258023 0.7751250380 0.2880432784  Biso 1.0 Br
Br6 1.0000000000 0.5175899688 0.2156226656 0.7813754730  Biso 1.0 Br
Br7 1.0000000000 0.0131647379 0.2603971472 0.2608575548  Biso 1.0 Br
Br8 1.0000000000 0.5127233376 0.2264894620 0.2523394106  Biso 1.0 Br
Br9 1.0000000000 0.7250170364 0.7264978175 0.9869737996  Biso 1.0 Br
Br10 1.0000000000 0.2810707334 0.7520440489 0.0183132252  Biso 1.0 Br
Br11 1.0000000000 0.7816535271 0.7520086880 0.4881996939  Biso 1.0 Br
Br12 1.0000000000 0.7684223720 0.2347804226 0.9922370320  Biso 1.0 Br
Br13 1.0000000000 0.2265875929 0.7314838718 0.5192470246  Biso 1.0 Br
Br14 1.0000000000 0.2369782478 0.2149901732 0.0233726174  Biso 1.0 Br
Br15 1.0000000000 0.7371760363 0.2427500836 0.4921971983  Biso 1.0 Br
Br16 1.0000000000 0.2677246252 0.2697233303 0.5229196685  Biso 1.0 Br
Br17 1.0000000000 0.7701173420 0.0053393994 0.7585184189  Biso 1.0 Br
Br18 1.0000000000 0.2319067945 0.9749844186 0.7403848764  Biso 1.0 Br
Br19 1.0000000000 0.7780302972 0.9751799927 0.2466014217  Biso 1.0 Br
Br20 1.0000000000 0.7350715505 0.5060950452 0.7446111529  Biso 1.0 Br
Br21 1.0000000000 0.2288595438 0.0094552834 0.2784755638  Biso 1.0 Br
Br22 1.0000000000 0.2653800130 0.4764538736 0.7775965906  Biso 1.0 Br
Br23 1.0000000000 0.7279201574 0.4737582282 0.2579215002  Biso 1.0 Br
Br24 1.0000000000 0.2792058668 0.5088929148 0.2408370877  Biso 1.0 Br
Cs25 1.0000000000 0.0037836983 0.9813794966 0.0031316866  Biso 1.0 Cs
Cs26 1.0000000000 0.5060455490 0.9862807550 0.0169347227  Biso 1.0 Cs
Cs27 1.0000000000 0.9956351307 0.0026315153 0.5090271539  Biso 1.0 Cs
Cs28 1.0000000000 0.9963295700 0.4796900792 0.9928470668  Biso 1.0 Cs
Cs29 1.0000000000 0.4908508882 0.0039088585 0.5162405167  Biso 1.0 Cs
Cs30 1.0000000000 0.5040283852 0.4820832185 0.0028203766  Biso 1.0 Cs
Cs31 1.0000000000 0.9951289987 0.4967617060 0.4946990103  Biso 1.0 Cs
Cs32 1.0000000000 0.4982897184 0.5032160641 0.5007728534  Biso 1.0 Cs
Ge33 1.0000000000 0.7301095876 0.7272607009 0.7652752895  Biso 1.0 Ge
Ge34 1.0000000000 0.2300226386 0.7521704115 0.7394841867  Biso 1.0 Ge
Ge35 1.0000000000 0.7424747206 0.7583830051 0.2712909753  Biso 1.0 Ge
Ge36 1.0000000000 0.7384502138 0.2238928175 0.7735307106  Biso 1.0 Ge
Ge37 1.0000000000 0.2418446812 0.7268678095 0.2339178930  Biso 1.0 Ge
Ge38 1.0000000000 0.2376844805 0.2605244989 0.7416746050  Biso 1.0 Ge
Ge39 1.0000000000 0.7310422250 0.2517517058 0.2712429537  Biso 1.0 Ge
Ge40 1.0000000000 0.2311067312 0.2284217359 0.2442987708  Biso 1.0 Ge
