# AFLOW.org Repositories
# Cl3Cs1Mg1
data_Cl3Cs1Mg1
_pd_phase_name Cl3Cs1Mg1
_cell_length_a  5.1310449300
_cell_length_b  5.1310449300
_cell_length_c  5.1310449300
_cell_angle_alpha  90.0000000000
_cell_angle_beta  90.0000000000
_cell_angle_gamma  90.0000000000
_symmetry_space_group_name_H-M  'P1'
_symmetry_Int_Tables_Number  1
loop_
_symmetry_equiv_pos_site_id
_symmetry_equiv_pos_as_xyz
  1  x,y,z
loop_
 _atom_site_label
 _atom_site_occupancy
 _atom_site_fract_x
 _atom_site_fract_y
 _atom_site_fract_z
 _atom_site_thermal_displace_type
 _atom_site_B_iso_or_equiv
 _atom_site_type_symbol
Cl1 1.0000000000 0.4999999912 0.9999999435 0.4999999523  Biso 1.0 Cl
Cl2 1.0000000000 0.5000000555 0.5000001335 0.0000000000  Biso 1.0 Cl
Cl3 1.0000000000 0.9999999864 0.5000000127 0.5000000984  Biso 1.0 Cl
Cs4 1.0000000000 0.9999999669 0.9999999513 0.9999999942  Biso 1.0 Cs
Mg5 1.0000000000 0.4999999659 0.5000000302 0.5000000283  Biso 1.0 Mg
