# AFLOW.org Repositories
# Br3Cs1Mg1
data_Br3Cs1Mg1
_pd_phase_name Br3Cs1Mg1
_cell_length_a  5.4471829960
_cell_length_b  5.4471829960
_cell_length_c  5.4471829960
_cell_angle_alpha  90.0000000000
_cell_angle_beta  90.0000000000
_cell_angle_gamma  90.0000000000
_symmetry_space_group_name_H-M  'P1'
_symmetry_Int_Tables_Number  1
loop_
_symmetry_equiv_pos_site_id
_symmetry_equiv_pos_as_xyz
  1  x,y,z
loop_
 _atom_site_label
 _atom_site_occupancy
 _atom_site_fract_x
 _atom_site_fract_y
 _atom_site_fract_z
 _atom_site_thermal_displace_type
 _atom_site_B_iso_or_equiv
 _atom_site_type_symbol
Br1 1.0000000000 0.5000000059 0.4999999581 0.9999999860  Biso 1.0 Br
Br2 1.0000000000 0.5000000004 0.0000000000 0.5000000077  Biso 1.0 Br
Br3 1.0000000000 0.0000000000 0.4999998957 0.4999999949  Biso 1.0 Br
Cs4 1.0000000000 0.0000000000 0.9999999971 0.9999999916  Biso 1.0 Cs
Mg5 1.0000000000 0.4999999637 0.4999999526 0.4999999196  Biso 1.0 Mg
