# AFLOW.org Repositories
# Cs1F3Mg1
data_Cs1F3Mg1
_pd_phase_name Cs1F3Mg1
_cell_length_a  4.2469932940
_cell_length_b  4.2470416120
_cell_length_c  4.2470266640
_cell_angle_alpha  89.9998679793
_cell_angle_beta  89.9999993525
_cell_angle_gamma  90.0000868809
_symmetry_space_group_name_H-M  'P1'
_symmetry_Int_Tables_Number  1
loop_
_symmetry_equiv_pos_site_id
_symmetry_equiv_pos_as_xyz
  1  x,y,z
loop_
 _atom_site_label
 _atom_site_occupancy
 _atom_site_fract_x
 _atom_site_fract_y
 _atom_site_fract_z
 _atom_site_thermal_displace_type
 _atom_site_B_iso_or_equiv
 _atom_site_type_symbol
Cs1 1.0000000000 0.0154136287 0.9891735985 0.9895019025  Biso 1.0 Cs
F2 1.0000000000 0.5151048000 0.9877527790 0.4889092280  Biso 1.0 F
F3 1.0000000000 0.5159010214 0.4896959606 0.9896990546  Biso 1.0 F
F4 1.0000000000 0.0152089862 0.4888896503 0.4898647450  Biso 1.0 F
Mg5 1.0000000000 0.5156136109 0.4885995048 0.4895676649  Biso 1.0 Mg
