# AFLOW.org Repositories
# Cs8I24Mg8
data_Cs8I24Mg8
_pd_phase_name Cs8I24Mg8
_cell_length_a  11.8650804050
_cell_length_b  11.8181117343
_cell_length_c  11.7777697983
_cell_angle_alpha  89.8663493760
_cell_angle_beta  89.6966968920
_cell_angle_gamma  90.1552834424
_symmetry_space_group_name_H-M  'P1'
_symmetry_Int_Tables_Number  1
loop_
_symmetry_equiv_pos_site_id
_symmetry_equiv_pos_as_xyz
  1  x,y,z
loop_
 _atom_site_label
 _atom_site_occupancy
 _atom_site_fract_x
 _atom_site_fract_y
 _atom_site_fract_z
 _atom_site_thermal_displace_type
 _atom_site_B_iso_or_equiv
 _atom_site_type_symbol
Cs1 1.0000000000 0.9867143702 0.0065260133 0.9990095584  Biso 1.0 Cs
Cs2 1.0000000000 0.0025167059 0.5025609033 0.9909337532  Biso 1.0 Cs
Cs3 1.0000000000 0.9943719434 0.0090687499 0.5032153631  Biso 1.0 Cs
Cs4 1.0000000000 0.4868825141 0.0084534314 0.9999219552  Biso 1.0 Cs
Cs5 1.0000000000 0.0062094015 0.5037257543 0.4956867912  Biso 1.0 Cs
Cs6 1.0000000000 0.4986833345 0.5014838883 0.9896305814  Biso 1.0 Cs
Cs7 1.0000000000 0.4915595331 0.0097952286 0.5030574570  Biso 1.0 Cs
Cs8 1.0000000000 0.5053821179 0.5051497129 0.4944383344  Biso 1.0 Cs
I9 1.0000000000 0.2272885610 0.0060499125 0.2270647153  Biso 1.0 I
I10 1.0000000000 0.2653962931 0.5062589879 0.2669566053  Biso 1.0 I
I11 1.0000000000 0.2499830431 0.0063841701 0.7675661758  Biso 1.0 I
I12 1.0000000000 0.7647781586 0.0063324415 0.2699214531  Biso 1.0 I
I13 1.0000000000 0.2435213667 0.5062004183 0.7270474725  Biso 1.0 I
I14 1.0000000000 0.7274227530 0.5057015808 0.2236855469  Biso 1.0 I
I15 1.0000000000 0.7420953886 0.0059971621 0.7232457543  Biso 1.0 I
I16 1.0000000000 0.7517327620 0.5056559679 0.7707080398  Biso 1.0 I
I17 1.0000000000 0.2560543904 0.2756905568 0.9977731278  Biso 1.0 I
I18 1.0000000000 0.2704877316 0.7370567116 0.9968552256  Biso 1.0 I
I19 1.0000000000 0.2364776133 0.2364001030 0.4970022745  Biso 1.0 I
I20 1.0000000000 0.7359951111 0.2315736150 0.9967140063  Biso 1.0 I
I21 1.0000000000 0.2234207500 0.7764002840 0.4975616623  Biso 1.0 I
I22 1.0000000000 0.7229421840 0.7791581500 0.9964306755  Biso 1.0 I
I23 1.0000000000 0.7569537430 0.2805473371 0.4974657401  Biso 1.0 I
I24 1.0000000000 0.7703681145 0.7335383544 0.4967861136  Biso 1.0 I
I25 1.0000000000 0.9960295394 0.2756893595 0.2378865058  Biso 1.0 I
I26 1.0000000000 0.9962395074 0.7374493177 0.2238024293  Biso 1.0 I
I27 1.0000000000 0.9970044620 0.2508983498 0.7570897367  Biso 1.0 I
I28 1.0000000000 0.4967135914 0.2365483626 0.2568470898  Biso 1.0 I
I29 1.0000000000 0.9969424771 0.7609963492 0.7710092122  Biso 1.0 I
I30 1.0000000000 0.4963297029 0.7739862143 0.2709730383  Biso 1.0 I
I31 1.0000000000 0.4968196092 0.2611582604 0.7364690958  Biso 1.0 I
I32 1.0000000000 0.4967340262 0.7513043629 0.7230758356  Biso 1.0 I
Mg33 1.0000000000 0.2461972351 0.2562284887 0.2471834888  Biso 1.0 Mg
Mg34 1.0000000000 0.2458144458 0.7555944508 0.2467286998  Biso 1.0 Mg
Mg35 1.0000000000 0.2469036636 0.2555321907 0.7473323192  Biso 1.0 Mg
Mg36 1.0000000000 0.7466652980 0.2563328018 0.2476726185  Biso 1.0 Mg
Mg37 1.0000000000 0.2477804064 0.7560517384 0.7465514299  Biso 1.0 Mg
Mg38 1.0000000000 0.7461107144 0.7554679204 0.2464662136  Biso 1.0 Mg
Mg39 1.0000000000 0.7471392148 0.2552571159 0.7473559395  Biso 1.0 Mg
Mg40 1.0000000000 0.7476216264 0.7557299094 0.7468421775  Biso 1.0 Mg
