# AFLOW.org Repositories
# Cl24Cs8Pb8
data_Cl24Cs8Pb8
_pd_phase_name Cl24Cs8Pb8
_cell_length_a  11.3675261240
_cell_length_b  11.3788768430
_cell_length_c  11.3797906084
_cell_angle_alpha  88.9897315970
_cell_angle_beta  90.0000000000
_cell_angle_gamma  90.0000000000
_symmetry_space_group_name_H-M  'P1'
_symmetry_Int_Tables_Number  1
loop_
_symmetry_equiv_pos_site_id
_symmetry_equiv_pos_as_xyz
  1  x,y,z
loop_
 _atom_site_label
 _atom_site_occupancy
 _atom_site_fract_x
 _atom_site_fract_y
 _atom_site_fract_z
 _atom_site_thermal_displace_type
 _atom_site_B_iso_or_equiv
 _atom_site_type_symbol
Cl1 1.0000000000 0.2129863722 0.9951906875 0.7872510061  Biso 1.0 Cl
Cl2 1.0000000000 0.2810439655 0.4966642260 0.7050645857  Biso 1.0 Cl
Cl3 1.0000000000 0.2892008793 0.9977431839 0.2049837313  Biso 1.0 Cl
Cl4 1.0000000000 0.7809452464 0.9965846309 0.7862568061  Biso 1.0 Cl
Cl5 1.0000000000 0.2070991308 0.4958303904 0.2851174645  Biso 1.0 Cl
Cl6 1.0000000000 0.7137405713 0.4980233096 0.7037043888  Biso 1.0 Cl
Cl7 1.0000000000 0.7053742708 0.9961140496 0.2051593058  Biso 1.0 Cl
Cl8 1.0000000000 0.7870986512 0.4950529385 0.2835351552  Biso 1.0 Cl
Cl9 1.0000000000 0.2863407548 0.7057953122 0.9956920318  Biso 1.0 Cl
Cl10 1.0000000000 0.2105778138 0.2862485258 0.9944253696  Biso 1.0 Cl
Cl11 1.0000000000 0.2077205959 0.7863427896 0.4943063997  Biso 1.0 Cl
Cl12 1.0000000000 0.7081773151 0.7072550579 0.9956698672  Biso 1.0 Cl
Cl13 1.0000000000 0.2827272966 0.2041682130 0.4960197731  Biso 1.0 Cl
Cl14 1.0000000000 0.7836943899 0.2865295161 0.9933029601  Biso 1.0 Cl
Cl15 1.0000000000 0.7834345796 0.7874986554 0.4942881364  Biso 1.0 Cl
Cl16 1.0000000000 0.7116691479 0.2051924412 0.4949878617  Biso 1.0 Cl
Cl17 1.0000000000 0.9971099865 0.7053546342 0.7749057264  Biso 1.0 Cl
Cl18 1.0000000000 0.9971867261 0.2700360670 0.7012207127  Biso 1.0 Cl
Cl19 1.0000000000 0.9970279994 0.7751023117 0.2003941312  Biso 1.0 Cl
Cl20 1.0000000000 0.4967445202 0.7867591270 0.7153671632  Biso 1.0 Cl
Cl21 1.0000000000 0.9971698949 0.1989554082 0.2679391187  Biso 1.0 Cl
Cl22 1.0000000000 0.4968384289 0.2223817741 0.7879841389  Biso 1.0 Cl
Cl23 1.0000000000 0.4970480189 0.7162957177 0.2916610591  Biso 1.0 Cl
Cl24 1.0000000000 0.4970021215 0.2941614284 0.2222900387  Biso 1.0 Cl
Cs25 1.0000000000 0.9974110370 0.0229663348 0.0099533288  Biso 1.0 Cs
Cs26 1.0000000000 0.9976428544 0.5127197881 0.0252081275  Biso 1.0 Cs
Cs27 1.0000000000 0.9967438242 0.0135619612 0.5200949409  Biso 1.0 Cs
Cs28 1.0000000000 0.4967690110 0.9683308072 0.9735289073  Biso 1.0 Cs
Cs29 1.0000000000 0.9960683746 0.5246796057 0.5146247052  Biso 1.0 Cs
Cs30 1.0000000000 0.4967870096 0.4788781222 0.9690999309  Biso 1.0 Cs
Cs31 1.0000000000 0.4982086602 0.9787540111 0.4649586668  Biso 1.0 Cs
Cs32 1.0000000000 0.4965760851 0.4684225472 0.4828956568  Biso 1.0 Cs
Pb33 1.0000000000 0.2465393498 0.7460510750 0.7452959128  Biso 1.0 Pb
Pb34 1.0000000000 0.2466487395 0.2455682425 0.7451979423  Biso 1.0 Pb
Pb35 1.0000000000 0.2471186571 0.7465145369 0.2450391957  Biso 1.0 Pb
Pb36 1.0000000000 0.7466765607 0.7471466731 0.7451789109  Biso 1.0 Pb
Pb37 1.0000000000 0.2476343066 0.2461832905 0.2452462941  Biso 1.0 Pb
Pb38 1.0000000000 0.7470821151 0.2466269189 0.7446155247  Biso 1.0 Pb
Pb39 1.0000000000 0.7457922830 0.7458906095 0.2452431995  Biso 1.0 Pb
Pb40 1.0000000000 0.7469059088 0.2458426632 0.2443221993  Biso 1.0 Pb
