# AFLOW.org Repositories
# Cs8F24Pb8
data_Cs8F24Pb8
_pd_phase_name Cs8F24Pb8
_cell_length_a  9.7934767880
_cell_length_b  9.7391177510
_cell_length_c  9.7414793055
_cell_angle_alpha  89.8636144642
_cell_angle_beta  90.0000000000
_cell_angle_gamma  90.0000000000
_symmetry_space_group_name_H-M  'P1'
_symmetry_Int_Tables_Number  1
loop_
_symmetry_equiv_pos_site_id
_symmetry_equiv_pos_as_xyz
  1  x,y,z
loop_
 _atom_site_label
 _atom_site_occupancy
 _atom_site_fract_x
 _atom_site_fract_y
 _atom_site_fract_z
 _atom_site_thermal_displace_type
 _atom_site_B_iso_or_equiv
 _atom_site_type_symbol
Cs1 1.0000000000 0.0018324830 0.9853803215 0.9912719726  Biso 1.0 Cs
Cs2 1.0000000000 0.5002336020 0.0029140229 0.0111904399  Biso 1.0 Cs
Cs3 1.0000000000 0.0003059608 0.9946394383 0.4930847305  Biso 1.0 Cs
Cs4 1.0000000000 0.0005570065 0.4893043058 0.9978011083  Biso 1.0 Cs
Cs5 1.0000000000 0.5018314003 0.0107610672 0.5158711362  Biso 1.0 Cs
Cs6 1.0000000000 0.5005473211 0.5044926280 0.0129608629  Biso 1.0 Cs
Cs7 1.0000000000 0.0010189895 0.4900902001 0.4930986463  Biso 1.0 Cs
Cs8 1.0000000000 0.5018952887 0.5102051797 0.5122649119  Biso 1.0 Cs
F9 1.0000000000 0.0022795500 0.7848318161 0.7309599620  Biso 1.0 F
F10 1.0000000000 0.5019029377 0.7161730655 0.7735811855  Biso 1.0 F
F11 1.0000000000 0.9995208466 0.7313417361 0.2858431252  Biso 1.0 F
F12 1.0000000000 0.0014411644 0.2227962151 0.7751522850  Biso 1.0 F
F13 1.0000000000 0.5000941061 0.7615180686 0.2162886111  Biso 1.0 F
F14 1.0000000000 0.5016736994 0.2748443200 0.7304880016  Biso 1.0 F
F15 1.0000000000 0.9994369856 0.2820293595 0.2433918097  Biso 1.0 F
F16 1.0000000000 0.4993626692 0.2165098780 0.2647790296  Biso 1.0 F
F17 1.0000000000 0.7786845862 0.7143993794 0.0029498632  Biso 1.0 F
F18 1.0000000000 0.2219702632 0.7158600491 0.0024766268  Biso 1.0 F
F19 1.0000000000 0.7204304072 0.7834771932 0.5031345899  Biso 1.0 F
F20 1.0000000000 0.7345376954 0.2899773130 0.0031116184  Biso 1.0 F
F21 1.0000000000 0.2794591021 0.7863919210 0.5021876715  Biso 1.0 F
F22 1.0000000000 0.2662313391 0.2900296073 0.0025221087  Biso 1.0 F
F23 1.0000000000 0.7683551514 0.2123156393 0.5033367898  Biso 1.0 F
F24 1.0000000000 0.2326222943 0.2112427965 0.5031604906  Biso 1.0 F
F25 1.0000000000 0.7221106164 0.9971713778 0.7884648706  Biso 1.0 F
F26 1.0000000000 0.2815590489 0.9967428013 0.7894221397  Biso 1.0 F
F27 1.0000000000 0.7770553660 0.9979905692 0.2156832198  Biso 1.0 F
F28 1.0000000000 0.7795514019 0.4981190683 0.7167171034  Biso 1.0 F
F29 1.0000000000 0.2271228909 0.9968235733 0.2139315210  Biso 1.0 F
F30 1.0000000000 0.2247261731 0.4970759347 0.7157084323  Biso 1.0 F
F31 1.0000000000 0.7270069888 0.4975352996 0.2885262253  Biso 1.0 F
F32 1.0000000000 0.2752360871 0.4968227491 0.2892103235  Biso 1.0 F
Pb33 1.0000000000 0.7514134234 0.7483375286 0.7525312634  Biso 1.0 Pb
Pb34 1.0000000000 0.2511386021 0.7484423250 0.7520385699  Biso 1.0 Pb
Pb35 1.0000000000 0.7502927029 0.7484020687 0.2526144813  Biso 1.0 Pb
Pb36 1.0000000000 0.7515730286 0.2491551090 0.7536345620  Biso 1.0 Pb
Pb37 1.0000000000 0.2505897919 0.7481395627 0.2531517082  Biso 1.0 Pb
Pb38 1.0000000000 0.2514282204 0.2492451864 0.7529952332  Biso 1.0 Pb
Pb39 1.0000000000 0.7500076856 0.2481061116 0.2524608030  Biso 1.0 Pb
Pb40 1.0000000000 0.2505495345 0.2480410695 0.2528542515  Biso 1.0 Pb
