# AFLOW.org Repositories
# Br12Cs4Pb4
data_Br12Cs4Pb4
_pd_phase_name Br12Cs4Pb4
_cell_length_a  8.5250750059
_cell_length_b  8.2988140224
_cell_length_c  11.8660982282
_cell_angle_alpha  89.9936748594
_cell_angle_beta  89.9994444193
_cell_angle_gamma  89.9976588944
_symmetry_space_group_name_H-M  'P1'
_symmetry_Int_Tables_Number  1
loop_
_symmetry_equiv_pos_site_id
_symmetry_equiv_pos_as_xyz
  1  x,y,z
loop_
 _atom_site_label
 _atom_site_occupancy
 _atom_site_fract_x
 _atom_site_fract_y
 _atom_site_fract_z
 _atom_site_thermal_displace_type
 _atom_site_B_iso_or_equiv
 _atom_site_type_symbol
Br1 1.0000000000 0.4825271065 0.0730989521 0.0016527944  Biso 1.0 Br
Br2 1.0000000000 0.5220683390 0.9161402244 0.5016503564  Biso 1.0 Br
Br3 1.0000000000 0.9829879116 0.4182771314 0.0017822423  Biso 1.0 Br
Br4 1.0000000000 0.0209693510 0.5755689557 0.5013476238  Biso 1.0 Br
Br5 1.0000000000 0.7914226019 0.7872052015 0.2115703708  Biso 1.0 Br
Br6 1.0000000000 0.7911759185 0.7868277275 0.7918955418  Biso 1.0 Br
Br7 1.0000000000 0.2133203231 0.2040993790 0.2944483164  Biso 1.0 Br
Br8 1.0000000000 0.2098289636 0.2008971749 0.7123054775  Biso 1.0 Br
Br9 1.0000000000 0.7103682730 0.2885231080 0.2929022590  Biso 1.0 Br
Br10 1.0000000000 0.7091550197 0.2899492099 0.7124176277  Biso 1.0 Br
Br11 1.0000000000 0.2911180110 0.7038552175 0.2106610230  Biso 1.0 Br
Br12 1.0000000000 0.2913347736 0.7036729201 0.7898788287  Biso 1.0 Br
Cs13 1.0000000000 0.0531052011 0.9805944662 0.0015272694  Biso 1.0 Cs
Cs14 1.0000000000 0.9498624445 0.0116815231 0.5016050300  Biso 1.0 Cs
Cs15 1.0000000000 0.5526658282 0.5118727687 0.0008729708  Biso 1.0 Cs
Cs16 1.0000000000 0.4492248197 0.4819151312 0.5018134388  Biso 1.0 Cs
Pb17 1.0000000000 0.5022366977 0.9950749788 0.2516059644  Biso 1.0 Pb
Pb18 1.0000000000 0.5023550112 0.9948631452 0.7513592250  Biso 1.0 Pb
Pb19 1.0000000000 0.0020985173 0.4945266069 0.2520268656  Biso 1.0 Pb
Pb20 1.0000000000 0.0018607327 0.4945911857 0.7510060974  Biso 1.0 Pb
