# AFLOW.org Repositories
# Cs4I12Pb4
data_Cs4I12Pb4
_pd_phase_name Cs4I12Pb4
_cell_length_a  8.7120535778
_cell_length_b  9.0989666675
_cell_length_c  12.6457243320
_cell_angle_alpha  90.0045183487
_cell_angle_beta  90.0021215621
_cell_angle_gamma  89.9973632990
_symmetry_space_group_name_H-M  'P1'
_symmetry_Int_Tables_Number  1
loop_
_symmetry_equiv_pos_site_id
_symmetry_equiv_pos_as_xyz
  1  x,y,z
loop_
 _atom_site_label
 _atom_site_occupancy
 _atom_site_fract_x
 _atom_site_fract_y
 _atom_site_fract_z
 _atom_site_thermal_displace_type
 _atom_site_B_iso_or_equiv
 _atom_site_type_symbol
Cs1 1.0000000000 0.0266557771 0.9292854170 0.9938260679  Biso 1.0 Cs
Cs2 1.0000000000 0.4785326675 0.4291664178 0.9948902506  Biso 1.0 Cs
Cs3 1.0000000000 0.9714960868 0.0783456299 0.4940988514  Biso 1.0 Cs
Cs4 1.0000000000 0.5233519863 0.5754186122 0.4949126533  Biso 1.0 Cs
I5 1.0000000000 0.3052676404 0.7036040270 0.2023618708  Biso 1.0 I
I6 1.0000000000 0.6986578153 0.3020844374 0.2868885349  Biso 1.0 I
I7 1.0000000000 0.3069715306 0.7026485612 0.7857475362  Biso 1.0 I
I8 1.0000000000 0.6980030974 0.3033643914 0.7036052996  Biso 1.0 I
I9 1.0000000000 0.5846780180 0.0126921032 0.9942738132  Biso 1.0 I
I10 1.0000000000 0.9202073364 0.5098164694 0.9943455626  Biso 1.0 I
I11 1.0000000000 0.4140357444 0.9957064284 0.4942759698  Biso 1.0 I
I12 1.0000000000 0.0860945040 0.4931283116 0.4943914482  Biso 1.0 I
I13 1.0000000000 0.1978785118 0.2053660325 0.2018506354  Biso 1.0 I
I14 1.0000000000 0.8041791307 0.8031889766 0.2853864304  Biso 1.0 I
I15 1.0000000000 0.1968919590 0.2045427569 0.7860723097  Biso 1.0 I
I16 1.0000000000 0.8051941876 0.8042672657 0.7028677977  Biso 1.0 I
Pb17 1.0000000000 0.5015220975 0.0038408196 0.2450825187  Biso 1.0 Pb
Pb18 1.0000000000 0.0029701555 0.5035330217 0.2448200230  Biso 1.0 Pb
Pb19 1.0000000000 0.5017801395 0.0038165273 0.7441122502  Biso 1.0 Pb
Pb20 1.0000000000 0.0025790241 0.5037051406 0.7447926843  Biso 1.0 Pb
