# AFLOW.org Repositories
# Cs4I12Sn4
data_Cs4I12Sn4
_pd_phase_name Cs4I12Sn4
_cell_length_a  8.6261177915
_cell_length_b  9.0678153988
_cell_length_c  12.5730503668
_cell_angle_alpha  89.4418195597
_cell_angle_beta  89.9708820292
_cell_angle_gamma  89.9986698183
_symmetry_space_group_name_H-M  'P1'
_symmetry_Int_Tables_Number  1
loop_
_symmetry_equiv_pos_site_id
_symmetry_equiv_pos_as_xyz
  1  x,y,z
loop_
 _atom_site_label
 _atom_site_occupancy
 _atom_site_fract_x
 _atom_site_fract_y
 _atom_site_fract_z
 _atom_site_thermal_displace_type
 _atom_site_B_iso_or_equiv
 _atom_site_type_symbol
Cs1 1.0000000000 0.9761794478 0.0754480489 0.9990781652  Biso 1.0 Cs
Cs2 1.0000000000 0.0221396988 0.9403503346 0.4990821048  Biso 1.0 Cs
Cs3 1.0000000000 0.5148349248 0.5762679038 0.0006929812  Biso 1.0 Cs
Cs4 1.0000000000 0.4683291911 0.4412046130 0.5003866971  Biso 1.0 Cs
I5 1.0000000000 0.4277745201 1.0025026042 0.0048450966  Biso 1.0 I
I6 1.0000000000 0.5714901041 0.0185712573 0.5045673996  Biso 1.0 I
I7 1.0000000000 0.0636702509 0.5017009271 0.0051892282  Biso 1.0 I
I8 1.0000000000 0.9193953829 0.5175037139 0.5050026497  Biso 1.0 I
I9 1.0000000000 0.7912560097 0.8072309403 0.2145884482  Biso 1.0 I
I10 1.0000000000 0.7922718318 0.8077247689 0.7851801846  Biso 1.0 I
I11 1.0000000000 0.1963165585 0.2196933253 0.2840427741  Biso 1.0 I
I12 1.0000000000 0.1901178226 0.2165501474 0.7150474448  Biso 1.0 I
I13 1.0000000000 0.7009147727 0.3071684004 0.2142471634  Biso 1.0 I
I14 1.0000000000 0.6960482375 0.3079507808 0.7861738874  Biso 1.0 I
I15 1.0000000000 0.2973674945 0.7181248077 0.2843091933  Biso 1.0 I
I16 1.0000000000 0.2992654146 0.7165285834 0.7159570656  Biso 1.0 I
Sn17 1.0000000000 0.4977532475 0.9931101661 0.2433017290  Biso 1.0 Sn
Sn18 1.0000000000 0.5036201581 0.9904807091 0.7423000829  Biso 1.0 Sn
Sn19 1.0000000000 0.9937460266 0.4932920768 0.2428255198  Biso 1.0 Sn
Sn20 1.0000000000 0.9856213896 0.4904183036 0.7420967006  Biso 1.0 Sn
