# AFLOW.org Repositories
# Cs4F12Sn4
data_Cs4F12Sn4
_pd_phase_name Cs4F12Sn4
_cell_length_a  10.0052617573
_cell_length_b  7.2590176444
_cell_length_c  6.8173390660
_cell_angle_alpha  90.5949056479
_cell_angle_beta  95.1752679058
_cell_angle_gamma  90.2571690247
_symmetry_space_group_name_H-M  'P1'
_symmetry_Int_Tables_Number  1
loop_
_symmetry_equiv_pos_site_id
_symmetry_equiv_pos_as_xyz
  1  x,y,z
loop_
 _atom_site_label
 _atom_site_occupancy
 _atom_site_fract_x
 _atom_site_fract_y
 _atom_site_fract_z
 _atom_site_thermal_displace_type
 _atom_site_B_iso_or_equiv
 _atom_site_type_symbol
Cs1 1.0000000000 -0.0000860693 1.0006531447 0.0083534593  Biso 1.0 Cs
Cs2 1.0000000000 1.0020302813 0.4971708408 0.5060075320  Biso 1.0 Cs
Cs3 1.0000000000 0.5000498893 1.0016068857 0.0101323890  Biso 1.0 Cs
Cs4 1.0000000000 0.5023343400 0.5000710359 0.5045278623  Biso 1.0 Cs
F5 1.0000000000 0.6891883079 0.7737446050 0.3192763152  Biso 1.0 F
F6 1.0000000000 0.7701526806 0.3590385934 0.7357355540  Biso 1.0 F
F7 1.0000000000 0.2720883605 0.8493908190 0.2415618163  Biso 1.0 F
F8 1.0000000000 0.1849580056 0.2713872486 0.8187662884  Biso 1.0 F
F9 1.0000000000 0.0449019022 0.9154928765 0.4713851614  Biso 1.0 F
F10 1.0000000000 0.0460453942 0.5874512293 0.9633504984  Biso 1.0 F
F11 1.0000000000 0.5450169397 0.0840953713 0.4660634177  Biso 1.0 F
F12 1.0000000000 0.5464745039 0.4196551855 0.9732449540  Biso 1.0 F
F13 1.0000000000 0.7745802479 0.1484686044 0.2426710157  Biso 1.0 F
F14 1.0000000000 0.6896642230 0.7316902027 0.8255382340  Biso 1.0 F
F15 1.0000000000 0.1906288500 0.2236074983 0.3226604885  Biso 1.0 F
F16 1.0000000000 0.2759133904 0.6424381733 0.7385503566  Biso 1.0 F
Sn17 1.0000000000 0.7467714753 1.0022661393 0.5000218007  Biso 1.0 Sn
Sn18 1.0000000000 0.7480675169 0.5039744511 -0.0005214917  Biso 1.0 Sn
Sn19 1.0000000000 0.2469284382 0.9984105931 0.5016981591  Biso 1.0 Sn
Sn20 1.0000000000 0.2463829043 0.5000386197 0.9975303388  Biso 1.0 Sn
