# AFLOW.org Repositories
# Cs8F24Sr8
data_Cs8F24Sr8
_pd_phase_name Cs8F24Sr8
_cell_length_a  9.6704950620
_cell_length_b  9.5786448691
_cell_length_c  9.5809777931
_cell_angle_alpha  89.9845196943
_cell_angle_beta  89.9135675675
_cell_angle_gamma  90.0131465941
_symmetry_space_group_name_H-M  'P1'
_symmetry_Int_Tables_Number  1
loop_
_symmetry_equiv_pos_site_id
_symmetry_equiv_pos_as_xyz
  1  x,y,z
loop_
 _atom_site_label
 _atom_site_occupancy
 _atom_site_fract_x
 _atom_site_fract_y
 _atom_site_fract_z
 _atom_site_thermal_displace_type
 _atom_site_B_iso_or_equiv
 _atom_site_type_symbol
Cs1 1.0000000000 0.9998975147 0.0031529096 0.9995689244  Biso 1.0 Cs
Cs2 1.0000000000 0.0025921999 0.5049718136 0.0001063598  Biso 1.0 Cs
Cs3 1.0000000000 0.4994764225 0.0044508777 0.0013287428  Biso 1.0 Cs
Cs4 1.0000000000 0.9979117486 0.0038956903 0.5004296184  Biso 1.0 Cs
Cs5 1.0000000000 0.5033638988 0.5025099858 0.9977440114  Biso 1.0 Cs
Cs6 1.0000000000 0.0024828564 0.5025444650 0.4973966039  Biso 1.0 Cs
Cs7 1.0000000000 0.4975246317 0.0031209444 0.4989385642  Biso 1.0 Cs
Cs8 1.0000000000 0.5021265743 0.5031376055 0.5010841025  Biso 1.0 Cs
F9 1.0000000000 0.2609594106 0.0030911673 0.7883429816  Biso 1.0 F
F10 1.0000000000 0.2405516101 0.5027363853 0.7110383186  Biso 1.0 F
F11 1.0000000000 0.7408414020 0.0033859696 0.7107185899  Biso 1.0 F
F12 1.0000000000 0.2493304256 0.0033712988 0.2103943513  Biso 1.0 F
F13 1.0000000000 0.7583927809 0.5031456541 0.7873829919  Biso 1.0 F
F14 1.0000000000 0.2533699451 0.5031760148 0.2892692358  Biso 1.0 F
F15 1.0000000000 0.7551050887 0.0036615310 0.2882011171  Biso 1.0 F
F16 1.0000000000 0.7478791898 0.5040139436 0.2101457511  Biso 1.0 F
F17 1.0000000000 0.0001765852 0.2421937988 0.7533017634  Biso 1.0 F
F18 1.0000000000 0.0007136333 0.7639473389 0.7634992700  Biso 1.0 F
F19 1.0000000000 0.5005520571 0.2639246974 0.7449894809  Biso 1.0 F
F20 1.0000000000 0.0008165899 0.2565514031 0.2466789441  Biso 1.0 F
F21 1.0000000000 0.5004842652 0.7416484731 0.7392203761  Biso 1.0 F
F22 1.0000000000 0.0007916750 0.7506251682 0.2379633005  Biso 1.0 F
F23 1.0000000000 0.5010147274 0.2498921608 0.2541309814  Biso 1.0 F
F24 1.0000000000 0.5009884706 0.7580890897 0.2622612697  Biso 1.0 F
F25 1.0000000000 0.2544117840 0.2922439552 0.9997585984  Biso 1.0 F
F26 1.0000000000 0.2606343363 0.7140782726 0.0001689913  Biso 1.0 F
F27 1.0000000000 0.7455456710 0.2143617386 0.9996139032  Biso 1.0 F
F28 1.0000000000 0.2475074444 0.2140950087 0.4997315604  Biso 1.0 F
F29 1.0000000000 0.7395651805 0.7918967455 0.9995543058  Biso 1.0 F
F30 1.0000000000 0.2398982609 0.7916039314 0.4999577934  Biso 1.0 F
F31 1.0000000000 0.7545416080 0.2916746789 0.4991795817  Biso 1.0 F
F32 1.0000000000 0.7628976987 0.7158423958 0.5001022631  Biso 1.0 F
Sr33 1.0000000000 0.2505289339 0.2527909956 0.7497280916  Biso 1.0 Sr
Sr34 1.0000000000 0.2506233195 0.7529615211 0.7499900255  Biso 1.0 Sr
Sr35 1.0000000000 0.7504582118 0.2531019894 0.7492154376  Biso 1.0 Sr
Sr36 1.0000000000 0.2508511484 0.2535318873 0.2496492958  Biso 1.0 Sr
Sr37 1.0000000000 0.7505528460 0.7533756089 0.7497120577  Biso 1.0 Sr
Sr38 1.0000000000 0.2511887614 0.7531296812 0.2499812487  Biso 1.0 Sr
Sr39 1.0000000000 0.7509382323 0.2538301597 0.2493386549  Biso 1.0 Sr
Sr40 1.0000000000 0.7510950839 0.7539600196 0.2501023983  Biso 1.0 Sr
