# AFLOW.org Repositories
# Br24Cs8Sr8
data_Br24Cs8Sr8
_pd_phase_name Br24Cs8Sr8
_cell_length_a  11.8734883863
_cell_length_b  11.9552479468
_cell_length_c  11.9348967506
_cell_angle_alpha  89.1972883503
_cell_angle_beta  89.9027185591
_cell_angle_gamma  89.8116425995
_symmetry_space_group_name_H-M  'P1'
_symmetry_Int_Tables_Number  1
loop_
_symmetry_equiv_pos_site_id
_symmetry_equiv_pos_as_xyz
  1  x,y,z
loop_
 _atom_site_label
 _atom_site_occupancy
 _atom_site_fract_x
 _atom_site_fract_y
 _atom_site_fract_z
 _atom_site_thermal_displace_type
 _atom_site_B_iso_or_equiv
 _atom_site_type_symbol
Br1 1.0000000000 0.9974543394 0.1976406628 0.2842644454  Biso 1.0 Br
Br2 1.0000000000 0.4973030116 0.2963922270 0.2208764366  Biso 1.0 Br
Br3 1.0000000000 0.9975545950 0.7760348236 0.2027178882  Biso 1.0 Br
Br4 1.0000000000 0.9976026840 0.2768507573 0.7005941095  Biso 1.0 Br
Br5 1.0000000000 0.4977923854 0.7196912241 0.3030654895  Biso 1.0 Br
Br6 1.0000000000 0.4974490748 0.2205678717 0.8060754370  Biso 1.0 Br
Br7 1.0000000000 0.9977106771 0.6980580498 0.7826076651  Biso 1.0 Br
Br8 1.0000000000 0.4976075120 0.8027247901 0.7265388530  Biso 1.0 Br
Br9 1.0000000000 0.2885292911 0.9984647232 0.2201320290  Biso 1.0 Br
Br10 1.0000000000 0.7079822558 0.9983357504 0.2152173096  Biso 1.0 Br
Br11 1.0000000000 0.2066747366 0.4976571670 0.2880177651  Biso 1.0 Br
Br12 1.0000000000 0.2050191715 0.9982120909 0.7877677538  Biso 1.0 Br
Br13 1.0000000000 0.7877017293 0.4972699119 0.2921076048  Biso 1.0 Br
Br14 1.0000000000 0.7888224722 0.9986319073 0.7913963625  Biso 1.0 Br
Br15 1.0000000000 0.2900189449 0.4992274189 0.7191472326  Biso 1.0 Br
Br16 1.0000000000 0.7059332405 0.5001034674 0.7144545755  Biso 1.0 Br
Br17 1.0000000000 0.2020942264 0.2811268219 0.0028987553  Biso 1.0 Br
Br18 1.0000000000 0.7892590389 0.2867047628 0.0022396901  Biso 1.0 Br
Br19 1.0000000000 0.2909305527 0.7146202277 0.0039072734  Biso 1.0 Br
Br20 1.0000000000 0.2925413726 0.2148440136 0.5033164792  Biso 1.0 Br
Br21 1.0000000000 0.7075035336 0.7081521056 0.0041238534  Biso 1.0 Br
Br22 1.0000000000 0.7038129615 0.2115029765 0.5032814462  Biso 1.0 Br
Br23 1.0000000000 0.2056497303 0.7817016017 0.5031894392  Biso 1.0 Br
Br24 1.0000000000 0.7898680816 0.7866713584 0.5028898733  Biso 1.0 Br
Cs25 1.0000000000 0.9974869454 0.0264102305 0.0194832754  Biso 1.0 Cs
Cs26 1.0000000000 0.4972424861 0.9727102998 0.9894822636  Biso 1.0 Cs
Cs27 1.0000000000 0.9974242595 0.5140577635 0.0323529218  Biso 1.0 Cs
Cs28 1.0000000000 0.9983415209 0.0128187352 0.5320448383  Biso 1.0 Cs
Cs29 1.0000000000 0.4982313457 0.4836575360 0.9738949496  Biso 1.0 Cs
Cs30 1.0000000000 0.4974738208 0.9830709164 0.4738411678  Biso 1.0 Cs
Cs31 1.0000000000 0.9977931842 0.5271869149 0.5193817612  Biso 1.0 Cs
Cs32 1.0000000000 0.4954038639 0.4699976294 0.4849632084  Biso 1.0 Cs
Sr33 1.0000000000 0.2472478562 0.2480470128 0.2530178192  Biso 1.0 Sr
Sr34 1.0000000000 0.7478112816 0.2481246204 0.2526578326  Biso 1.0 Sr
Sr35 1.0000000000 0.2476125691 0.7480717169 0.2532171228  Biso 1.0 Sr
Sr36 1.0000000000 0.2475322446 0.2487094144 0.7531153113  Biso 1.0 Sr
Sr37 1.0000000000 0.7476994663 0.7479413784 0.2532437495  Biso 1.0 Sr
Sr38 1.0000000000 0.7472887718 0.2492332342 0.7525497893  Biso 1.0 Sr
Sr39 1.0000000000 0.2479173160 0.7488627971 0.7538130709  Biso 1.0 Sr
Sr40 1.0000000000 0.7473506754 0.7492059109 0.7536288365  Biso 1.0 Sr
