# AFLOW.org Repositories
# Cs4I12Sr4
data_Cs4I12Sr4
_pd_phase_name Cs4I12Sr4
_cell_length_a  9.1728696307
_cell_length_b  8.8699943951
_cell_length_c  12.7176581765
_cell_angle_alpha  90.0001225798
_cell_angle_beta  89.9884662125
_cell_angle_gamma  89.9961288226
_symmetry_space_group_name_H-M  'P1'
_symmetry_Int_Tables_Number  1
loop_
_symmetry_equiv_pos_site_id
_symmetry_equiv_pos_as_xyz
  1  x,y,z
loop_
 _atom_site_label
 _atom_site_occupancy
 _atom_site_fract_x
 _atom_site_fract_y
 _atom_site_fract_z
 _atom_site_thermal_displace_type
 _atom_site_B_iso_or_equiv
 _atom_site_type_symbol
Cs1 1.0000000000 0.0712587771 0.0237390825 0.9973692441  Biso 1.0 Cs
Cs2 1.0000000000 0.5723005684 0.4796997474 0.9977432290  Biso 1.0 Cs
Cs3 1.0000000000 0.9346152938 0.9801075214 0.4986764856  Biso 1.0 Cs
Cs4 1.0000000000 0.4344950086 0.5233415571 0.4980235009  Biso 1.0 Cs
I5 1.0000000000 0.8007337782 0.2004933815 0.7933406458  Biso 1.0 I
I6 1.0000000000 0.2042339791 0.8025218207 0.7012568046  Biso 1.0 I
I7 1.0000000000 0.8008730690 0.2010972088 0.2007530479  Biso 1.0 I
I8 1.0000000000 0.2068103322 0.8003071632 0.2932796607  Biso 1.0 I
I9 1.0000000000 0.9852207934 0.5925687144 0.9975046870  Biso 1.0 I
I10 1.0000000000 0.4839989375 0.9100776821 0.9976299275  Biso 1.0 I
I11 1.0000000000 0.0205490216 0.4118635885 0.4976583598  Biso 1.0 I
I12 1.0000000000 0.5210503476 0.0913149515 0.4977083082  Biso 1.0 I
I13 1.0000000000 0.3025812122 0.3052296740 0.7923917686  Biso 1.0 I
I14 1.0000000000 0.7055039767 0.7020121221 0.7014712358  Biso 1.0 I
I15 1.0000000000 0.3021519408 0.3028355766 0.2023923764  Biso 1.0 I
I16 1.0000000000 0.7085994712 0.7036841140 0.2968231578  Biso 1.0 I
Sr17 1.0000000000 0.0023951801 0.5015623528 0.7475495120  Biso 1.0 Sr
Sr18 1.0000000000 0.5019030195 0.0015790193 0.7476569866  Biso 1.0 Sr
Sr19 1.0000000000 0.0033675024 0.5010325183 0.2474211364  Biso 1.0 Sr
Sr20 1.0000000000 0.5034671457 0.0008859686 0.2477126949  Biso 1.0 Sr
