# AFLOW.org Repositories
# Be8F24K8
data_Be8F24K8
_pd_phase_name Be8F24K8
_cell_length_a  10.2743598589
_cell_length_b  7.7366312071
_cell_length_c  8.5979702035
_cell_angle_alpha  91.0247481520
_cell_angle_beta  90.0092861971
_cell_angle_gamma  89.9395913349
_symmetry_space_group_name_H-M  'P1'
_symmetry_Int_Tables_Number  1
loop_
_symmetry_equiv_pos_site_id
_symmetry_equiv_pos_as_xyz
  1  x,y,z
loop_
 _atom_site_label
 _atom_site_occupancy
 _atom_site_fract_x
 _atom_site_fract_y
 _atom_site_fract_z
 _atom_site_thermal_displace_type
 _atom_site_B_iso_or_equiv
 _atom_site_type_symbol
Be1 1.0000000000 0.2717993049 0.2282027018 0.4513086928  Biso 1.0 Be
Be2 1.0000000000 0.7724005755 0.2722757783 0.0472955636  Biso 1.0 Be
Be3 1.0000000000 0.2706953040 0.6836197599 0.1290756327  Biso 1.0 Be
Be4 1.0000000000 0.2716782729 0.2398361794 0.8008221151  Biso 1.0 Be
Be5 1.0000000000 0.7710373266 0.8161570048 0.3708767861  Biso 1.0 Be
Be6 1.0000000000 0.7713816652 0.2599924540 0.6977879309  Biso 1.0 Be
Be7 1.0000000000 0.2713113528 0.5702698587 0.6211390095  Biso 1.0 Be
Be8 1.0000000000 0.7715482257 0.9299431699 0.8779010585  Biso 1.0 Be
F9 1.0000000000 0.8995249684 0.3267991170 0.1214263781  Biso 1.0 F
F10 1.0000000000 0.3989524071 0.1734805878 0.3771570377  Biso 1.0 F
F11 1.0000000000 0.8967990515 0.9058371254 0.3586427984  Biso 1.0 F
F12 1.0000000000 0.8994136987 0.3072737372 0.6229284869  Biso 1.0 F
F13 1.0000000000 0.3949074181 0.5897971497 0.1399300041  Biso 1.0 F
F14 1.0000000000 0.3999329175 0.1920580330 0.8750343370  Biso 1.0 F
F15 1.0000000000 0.1438898327 0.6701411819 0.6207182368  Biso 1.0 F
F16 1.0000000000 0.6441379249 0.8302639077 0.8788931362  Biso 1.0 F
F17 1.0000000000 0.1456551375 0.1719979145 0.3756344119  Biso 1.0 F
F18 1.0000000000 0.6433122241 0.9013838455 0.3583459206  Biso 1.0 F
F19 1.0000000000 0.1415676553 0.6021409365 0.1404391574  Biso 1.0 F
F20 1.0000000000 0.2712953358 0.1539698803 0.6270036702  Biso 1.0 F
F21 1.0000000000 0.6463619932 0.3291180294 0.1230836304  Biso 1.0 F
F22 1.0000000000 0.7710014779 0.0519671799 0.7253292916  Biso 1.0 F
F23 1.0000000000 0.2712301565 0.4478735567 0.7734918410  Biso 1.0 F
F24 1.0000000000 0.7717028142 0.3461527272 0.8715214603  Biso 1.0 F
F25 1.0000000000 0.1440973195 0.1915349486 0.8760964638  Biso 1.0 F
F26 1.0000000000 0.7714601394 0.0647985512 0.0232231355  Biso 1.0 F
F27 1.0000000000 0.2749307940 0.8701281377 0.0993300451  Biso 1.0 F
F28 1.0000000000 0.2708942147 0.4356246771 0.4755121195  Biso 1.0 F
F29 1.0000000000 0.8993502656 0.8308892965 0.8781914168  Biso 1.0 F
F30 1.0000000000 0.6435214554 0.3084284972 0.6230899868  Biso 1.0 F
F31 1.0000000000 0.3991028410 0.6691165608 0.6205324126  Biso 1.0 F
F32 1.0000000000 0.7726850003 0.6301162199 0.4030961687  Biso 1.0 F
K33 1.0000000000 0.0453800031 0.0274276498 0.1205621308  Biso 1.0 K
K34 1.0000000000 0.4996528207 0.0326351650 0.1212336575  Biso 1.0 K
K35 1.0000000000 0.0103537429 0.5116230307 0.8766320185  Biso 1.0 K
K36 1.0000000000 0.0324391956 0.9885301209 0.6211229317  Biso 1.0 K
K37 1.0000000000 0.5323068432 0.5118477447 0.8776509255  Biso 1.0 K
K38 1.0000000000 0.5103890039 0.9883663196 0.6219884411  Biso 1.0 K
K39 1.0000000000 0.9986585071 0.4690755010 0.3775936555  Biso 1.0 K
K40 1.0000000000 0.5445904429 0.4716023636 0.3784499962  Biso 1.0 K
