# AFLOW.org Repositories
# Br12Ca4K4
data_Br12Ca4K4
_pd_phase_name Br12Ca4K4
_cell_length_a  7.7102032430
_cell_length_b  8.0768819037
_cell_length_c  11.1107250010
_cell_angle_alpha  90.0049001804
_cell_angle_beta  89.9805667317
_cell_angle_gamma  89.9788676153
_symmetry_space_group_name_H-M  'P1'
_symmetry_Int_Tables_Number  1
loop_
_symmetry_equiv_pos_site_id
_symmetry_equiv_pos_as_xyz
  1  x,y,z
loop_
 _atom_site_label
 _atom_site_occupancy
 _atom_site_fract_x
 _atom_site_fract_y
 _atom_site_fract_z
 _atom_site_thermal_displace_type
 _atom_site_B_iso_or_equiv
 _atom_site_type_symbol
Br1 1.0000000000 0.3052690340 0.2852672824 0.6900927527  Biso 1.0 Br
Br2 1.0000000000 0.6975843334 0.6867325121 0.8026646193  Biso 1.0 Br
Br3 1.0000000000 0.3047025046 0.2857815928 0.3008621482  Biso 1.0 Br
Br4 1.0000000000 0.6950833877 0.6849796879 0.1911403862  Biso 1.0 Br
Br5 1.0000000000 0.8066859900 0.1850077288 0.7990480574  Biso 1.0 Br
Br6 1.0000000000 0.1974400854 0.7859336316 0.6910921783  Biso 1.0 Br
Br7 1.0000000000 0.8049603314 0.1853821361 0.1906343438  Biso 1.0 Br
Br8 1.0000000000 0.1957462955 0.7869401426 0.3009181413  Biso 1.0 Br
Br9 1.0000000000 0.1083012051 0.5169156787 0.9959342229  Biso 1.0 Br
Br10 1.0000000000 0.3930296528 0.0197357231 0.9956569703  Biso 1.0 Br
Br11 1.0000000000 0.8941509291 0.4557941590 0.4959585604  Biso 1.0 Br
Br12 1.0000000000 0.6079043257 0.9551672273 0.4957977134  Biso 1.0 Br
Ca13 1.0000000000 0.0016187425 0.4861970332 0.7459700166  Biso 1.0 Ca
Ca14 1.0000000000 0.5011797534 0.9863020052 0.7458561283  Biso 1.0 Ca
Ca15 1.0000000000 0.0003369029 0.4857415947 0.2458077452  Biso 1.0 Ca
Ca16 1.0000000000 0.5003567213 0.9864700790 0.2457462879  Biso 1.0 Ca
K17 1.0000000000 0.9769290596 0.9128252222 0.9947247684  Biso 1.0 K
K18 1.0000000000 0.5256952192 0.4127944029 0.9943955675  Biso 1.0 K
K19 1.0000000000 0.0242884664 0.0583752365 0.4972015159  Biso 1.0 K
K20 1.0000000000 0.4759623848 0.5592330558 0.4930655764  Biso 1.0 K
