# AFLOW.org Repositories
# Ca4Cl12K4
data_Ca4Cl12K4
_pd_phase_name Ca4Cl12K4
_cell_length_a  7.3262567080
_cell_length_b  7.6461729960
_cell_length_c  10.5472423050
_cell_angle_alpha  90.0000000000
_cell_angle_beta  90.0000000000
_cell_angle_gamma  90.0000000000
_symmetry_space_group_name_H-M  'P1'
_symmetry_Int_Tables_Number  1
loop_
_symmetry_equiv_pos_site_id
_symmetry_equiv_pos_as_xyz
  1  x,y,z
loop_
 _atom_site_label
 _atom_site_occupancy
 _atom_site_fract_x
 _atom_site_fract_y
 _atom_site_fract_z
 _atom_site_thermal_displace_type
 _atom_site_B_iso_or_equiv
 _atom_site_type_symbol
Ca1 1.0000000000 0.9916049068 0.5000269314 0.2539650377  Biso 1.0 Ca
Ca2 1.0000000000 0.4918936141 0.0002222942 0.2547837920  Biso 1.0 Ca
Ca3 1.0000000000 0.9918671539 0.4992062646 0.7536031789  Biso 1.0 Ca
Ca4 1.0000000000 0.4917826106 0.9998566582 0.7543060612  Biso 1.0 Ca
Cl5 1.0000000000 0.2945090796 0.7005412659 0.3041004357  Biso 1.0 Cl
Cl6 1.0000000000 0.6887978174 0.2991810454 0.2040889578  Biso 1.0 Cl
Cl7 1.0000000000 0.2942736238 0.7011295824 0.7011476646  Biso 1.0 Cl
Cl8 1.0000000000 0.6894888742 0.2980743859 0.8053430797  Biso 1.0 Cl
Cl9 1.0000000000 0.7938285200 0.7985687445 0.2026333053  Biso 1.0 Cl
Cl10 1.0000000000 0.1895054426 0.2017836990 0.3063855448  Biso 1.0 Cl
Cl11 1.0000000000 0.7935327606 0.7974007642 0.8054767070  Biso 1.0 Cl
Cl12 1.0000000000 0.1912371974 0.2028360986 0.7016778183  Biso 1.0 Cl
Cl13 1.0000000000 0.0907593750 0.4686218507 0.0036148899  Biso 1.0 Cl
Cl14 1.0000000000 0.3924975761 0.9719323868 0.0045724208  Biso 1.0 Cl
Cl15 1.0000000000 0.8920384380 0.5299940561 0.5036177786  Biso 1.0 Cl
Cl16 1.0000000000 0.5921343072 0.0285861869 0.5041816758  Biso 1.0 Cl
K17 1.0000000000 0.9703340332 0.0647696515 0.0036511781  Biso 1.0 K
K18 1.0000000000 0.5118260197 0.5640664673 0.0040093817  Biso 1.0 K
K19 1.0000000000 0.0125127707 0.9340518680 0.5036102951  Biso 1.0 K
K20 1.0000000000 0.4711231803 0.4331775951 0.5030141459  Biso 1.0 K
