# AFLOW.org Repositories
# Ca4F12K4
data_Ca4F12K4
_pd_phase_name Ca4F12K4
_cell_length_a  6.3028428812
_cell_length_b  6.1966270781
_cell_length_c  8.8219279052
_cell_angle_alpha  89.9983142769
_cell_angle_beta  90.0008559440
_cell_angle_gamma  89.9750012859
_symmetry_space_group_name_H-M  'P1'
_symmetry_Int_Tables_Number  1
loop_
_symmetry_equiv_pos_site_id
_symmetry_equiv_pos_as_xyz
  1  x,y,z
loop_
 _atom_site_label
 _atom_site_occupancy
 _atom_site_fract_x
 _atom_site_fract_y
 _atom_site_fract_z
 _atom_site_thermal_displace_type
 _atom_site_B_iso_or_equiv
 _atom_site_type_symbol
Ca1 1.0000000000 0.4935115258 0.9991512359 0.2509876086  Biso 1.0 Ca
Ca2 1.0000000000 0.9932101145 0.4988438304 0.2511979990  Biso 1.0 Ca
Ca3 1.0000000000 0.4937549904 0.9992667962 0.7507389207  Biso 1.0 Ca
Ca4 1.0000000000 0.9937161868 0.4992146373 0.7508637995  Biso 1.0 Ca
F5 1.0000000000 0.7022989813 0.2913285295 0.2924561404  Biso 1.0 F
F6 1.0000000000 0.2832057593 0.7077251753 0.2102749468  Biso 1.0 F
F7 1.0000000000 0.7019802172 0.2923039669 0.7109726029  Biso 1.0 F
F8 1.0000000000 0.2846527677 0.7070640898 0.7919814433  Biso 1.0 F
F9 1.0000000000 0.4653192075 0.0780235849 0.0009689547  Biso 1.0 F
F10 1.0000000000 0.9688950365 0.4192743115 0.0010625126  Biso 1.0 F
F11 1.0000000000 0.5232258823 0.9201185246 0.5007852973  Biso 1.0 F
F12 1.0000000000 0.0188949447 0.5799740265 0.5009919943  Biso 1.0 F
F13 1.0000000000 0.7832867798 0.7901893021 0.2076767131  Biso 1.0 F
F14 1.0000000000 0.2041078955 0.2083493335 0.2948106143  Biso 1.0 F
F15 1.0000000000 0.7845524872 0.7914200050 0.7926649018  Biso 1.0 F
F16 1.0000000000 0.2037987544 0.2079612170 0.7076505415  Biso 1.0 F
K17 1.0000000000 0.0320479301 0.9896924449 0.0005866592  Biso 1.0 K
K18 1.0000000000 0.5313081150 0.5082019253 0.0011417863  Biso 1.0 K
K19 1.0000000000 0.9551690260 0.0073347096 0.5009583898  Biso 1.0 K
K20 1.0000000000 0.4547243404 0.4905241330 0.5005353331  Biso 1.0 K
