# AFLOW.org Repositories
# Ca4I12K4
data_Ca4I12K4
_pd_phase_name Ca4I12K4
_cell_length_a  8.2385222600
_cell_length_b  8.7341408873
_cell_length_c  11.9546611673
_cell_angle_alpha  89.9742527184
_cell_angle_beta  90.0653636826
_cell_angle_gamma  90.0056314719
_symmetry_space_group_name_H-M  'P1'
_symmetry_Int_Tables_Number  1
loop_
_symmetry_equiv_pos_site_id
_symmetry_equiv_pos_as_xyz
  1  x,y,z
loop_
 _atom_site_label
 _atom_site_occupancy
 _atom_site_fract_x
 _atom_site_fract_y
 _atom_site_fract_z
 _atom_site_thermal_displace_type
 _atom_site_B_iso_or_equiv
 _atom_site_type_symbol
Ca1 1.0000000000 0.9988917037 0.4947472173 0.2455851686  Biso 1.0 Ca
Ca2 1.0000000000 0.9967520921 0.4950081532 0.7457845261  Biso 1.0 Ca
Ca3 1.0000000000 0.4987149961 0.9942430671 0.2451456322  Biso 1.0 Ca
Ca4 1.0000000000 0.4985467897 0.9948289676 0.7446681452  Biso 1.0 Ca
I5 1.0000000000 0.1145520341 0.5245947645 0.9955360530  Biso 1.0 I
I6 1.0000000000 0.8814415073 0.4653558236 0.4953355929  Biso 1.0 I
I7 1.0000000000 0.3824622015 0.0234620121 0.9950722453  Biso 1.0 I
I8 1.0000000000 0.6152111279 0.9650002015 0.4950403569  Biso 1.0 I
I9 1.0000000000 0.1872072672 0.7996649581 0.3032625487  Biso 1.0 I
I10 1.0000000000 0.1856540268 0.8004133443 0.6869255329  Biso 1.0 I
I11 1.0000000000 0.8092016167 0.1900347379 0.1874472511  Biso 1.0 I
I12 1.0000000000 0.8090432304 0.1893589104 0.8028963173  Biso 1.0 I
I13 1.0000000000 0.6875658830 0.6888247378 0.1873777869  Biso 1.0 I
I14 1.0000000000 0.6865528827 0.6894884120 0.8043938540  Biso 1.0 I
I15 1.0000000000 0.3105483384 0.3004940751 0.3030810555  Biso 1.0 I
I16 1.0000000000 0.3080128532 0.2998899171 0.6878467090  Biso 1.0 I
K17 1.0000000000 0.9658313502 0.9086035123 0.9972116267  Biso 1.0 K
K18 1.0000000000 0.0317660443 0.0825426862 0.4942815242  Biso 1.0 K
K19 1.0000000000 0.5307916433 0.4070199190 0.9957313775  Biso 1.0 K
K20 1.0000000000 0.4645002879 0.5811866583 0.4976889127  Biso 1.0 K
