# AFLOW.org Repositories
# Br24Ge8K8
data_Br24Ge8K8
_pd_phase_name Br24Ge8K8
_cell_length_a  11.3128022830
_cell_length_b  11.1741148253
_cell_length_c  11.3464618251
_cell_angle_alpha  89.8123155626
_cell_angle_beta  85.8629271376
_cell_angle_gamma  90.3653092840
_symmetry_space_group_name_H-M  'P1'
_symmetry_Int_Tables_Number  1
loop_
_symmetry_equiv_pos_site_id
_symmetry_equiv_pos_as_xyz
  1  x,y,z
loop_
 _atom_site_label
 _atom_site_occupancy
 _atom_site_fract_x
 _atom_site_fract_y
 _atom_site_fract_z
 _atom_site_thermal_displace_type
 _atom_site_B_iso_or_equiv
 _atom_site_type_symbol
Br1 1.0000000000 0.1953868541 0.1751427447 0.0216950206  Biso 1.0 Br
Br2 1.0000000000 0.3061015982 0.2946752885 0.5152621188  Biso 1.0 Br
Br3 1.0000000000 0.8066806551 0.3019707491 0.9921409461  Biso 1.0 Br
Br4 1.0000000000 0.2015029314 0.7851640586 0.0103917399  Biso 1.0 Br
Br5 1.0000000000 0.6899455830 0.1968775104 0.4942477127  Biso 1.0 Br
Br6 1.0000000000 0.3282453972 0.6872102965 0.5091160046  Biso 1.0 Br
Br7 1.0000000000 0.8183350445 0.6904111032 0.9669185114  Biso 1.0 Br
Br8 1.0000000000 0.7025282958 0.8067897513 0.4797906487  Biso 1.0 Br
Br9 1.0000000000 0.9667593284 0.3067750257 0.3080204750  Biso 1.0 Br
Br10 1.0000000000 0.0286447493 0.1862973217 0.6968746765  Biso 1.0 Br
Br11 1.0000000000 0.4707581500 0.1859756145 0.1950532353  Biso 1.0 Br
Br12 1.0000000000 0.9823890136 0.6979430572 0.3059451671  Biso 1.0 Br
Br13 1.0000000000 0.5259941991 0.2977137622 0.8233206769  Biso 1.0 Br
Br14 1.0000000000 0.0037863039 0.7987414208 0.6889544725  Biso 1.0 Br
Br15 1.0000000000 0.4851107230 0.7930437617 0.1755759107  Biso 1.0 Br
Br16 1.0000000000 0.4981258528 0.6853082635 0.7933781121  Biso 1.0 Br
Br17 1.0000000000 0.2045664562 0.0057412889 0.3175648008  Biso 1.0 Br
Br18 1.0000000000 0.3344994675 0.9663967239 0.7028229268  Biso 1.0 Br
Br19 1.0000000000 0.8223975731 0.9789341870 0.2114584523  Biso 1.0 Br
Br20 1.0000000000 0.2848515098 0.5125125137 0.1865858236  Biso 1.0 Br
Br21 1.0000000000 0.7221759740 0.0203184290 0.8225703007  Biso 1.0 Br
Br22 1.0000000000 0.1885827246 0.4670347514 0.7828444312  Biso 1.0 Br
Br23 1.0000000000 0.6743436995 0.4787360854 0.2978637172  Biso 1.0 Br
Br24 1.0000000000 0.8114175738 0.5160922328 0.6756514211  Biso 1.0 Br
Ge25 1.0000000000 0.2468550428 0.2170035768 0.2354401794  Biso 1.0 Ge
Ge26 1.0000000000 0.2410769148 0.2490661517 0.7321539760  Biso 1.0 Ge
Ge27 1.0000000000 0.7472523557 0.2619056744 0.2784925461  Biso 1.0 Ge
Ge28 1.0000000000 0.2626843177 0.7410443681 0.2196104211  Biso 1.0 Ge
Ge29 1.0000000000 0.7482285160 0.2473519816 0.7844720284  Biso 1.0 Ge
Ge30 1.0000000000 0.2904090860 0.7406028537 0.7297237618  Biso 1.0 Ge
Ge31 1.0000000000 0.7710735507 0.7599509663 0.2653975771  Biso 1.0 Ge
Ge32 1.0000000000 0.7886173944 0.7321528805 0.7457886675  Biso 1.0 Ge
K33 1.0000000000 0.9801112738 0.9793334298 0.9479992174  Biso 1.0 K
K34 1.0000000000 0.9417185050 0.0056222329 0.4760839580  Biso 1.0 K
K35 1.0000000000 0.4500470249 0.0022669466 0.9621860014  Biso 1.0 K
K36 1.0000000000 0.0313263924 0.4938079605 0.0469850714  Biso 1.0 K
K37 1.0000000000 0.4733764115 0.9894055280 0.4304412163  Biso 1.0 K
K38 1.0000000000 0.0737915257 0.5023766071 0.5156122190  Biso 1.0 K
K39 1.0000000000 0.5566621702 0.5109147611 0.0353942002  Biso 1.0 K
K40 1.0000000000 0.5387210967 0.4790319305 0.5695635610  Biso 1.0 K
