# AFLOW.org Repositories
# F24Ge8K8
data_F24Ge8K8
_pd_phase_name F24Ge8K8
_cell_length_a  9.2801924178
_cell_length_b  9.3402164609
_cell_length_c  9.6448214688
_cell_angle_alpha  85.5611234674
_cell_angle_beta  87.7042514946
_cell_angle_gamma  91.2378877594
_symmetry_space_group_name_H-M  'P1'
_symmetry_Int_Tables_Number  1
loop_
_symmetry_equiv_pos_site_id
_symmetry_equiv_pos_as_xyz
  1  x,y,z
loop_
 _atom_site_label
 _atom_site_occupancy
 _atom_site_fract_x
 _atom_site_fract_y
 _atom_site_fract_z
 _atom_site_thermal_displace_type
 _atom_site_B_iso_or_equiv
 _atom_site_type_symbol
F1 1.0000000000 0.2637602277 0.9403822731 0.6694834346  Biso 1.0 F
F2 1.0000000000 0.1081043460 0.4432353780 0.7903224986  Biso 1.0 F
F3 1.0000000000 0.6080514178 0.0658158627 0.7306838419  Biso 1.0 F
F4 1.0000000000 0.1467638360 0.0480681716 0.2515071653  Biso 1.0 F
F5 1.0000000000 0.7666086414 0.5644052583 0.8465377260  Biso 1.0 F
F6 1.0000000000 0.3775155427 0.5489426998 0.2118812101  Biso 1.0 F
F7 1.0000000000 0.7939690086 0.9194149677 0.4193651341  Biso 1.0 F
F8 1.0000000000 0.7409927986 0.4179786584 0.1994479081  Biso 1.0 F
F9 1.0000000000 0.8952965513 0.1262774244 0.7534075306  Biso 1.0 F
F10 1.0000000000 0.0462176227 0.7509451554 0.6498772373  Biso 1.0 F
F11 1.0000000000 0.3967309108 0.3838422524 0.7567370174  Biso 1.0 F
F12 1.0000000000 0.0822282263 0.2843366068 0.0943796565  Biso 1.0 F
F13 1.0000000000 0.5407514123 0.7356670229 0.8804046170  Biso 1.0 F
F14 1.0000000000 0.1017411778 0.6193777538 0.2693916301  Biso 1.0 F
F15 1.0000000000 0.5959998073 0.2232968910 0.3833163798  Biso 1.0 F
F16 1.0000000000 0.5850173172 0.8526856390 0.2545416112  Biso 1.0 F
F17 1.0000000000 0.3586876323 0.2003373459 0.0901540654  Biso 1.0 F
F18 1.0000000000 0.1465246944 0.7884302007 0.9067572269  Biso 1.0 F
F19 1.0000000000 0.6933116706 0.2169538635 0.9355772894  Biso 1.0 F
F20 1.0000000000 0.2033430218 0.3037002951 0.5743916368  Biso 1.0 F
F21 1.0000000000 0.7997729614 0.8244633794 0.9511712106  Biso 1.0 F
F22 1.0000000000 0.3166807114 0.7080887992 0.4277686770  Biso 1.0 F
F23 1.0000000000 0.8844856209 0.2725394610 0.4080314937  Biso 1.0 F
F24 1.0000000000 0.6919199253 0.6492625877 0.4439191413  Biso 1.0 F
Ge25 1.0000000000 0.2199227718 0.2805418048 0.7693594197  Biso 1.0 Ge
Ge26 1.0000000000 0.2279640886 0.7437302152 0.7321116013  Biso 1.0 Ge
Ge27 1.0000000000 0.7244092451 0.2314183772 0.7415748445  Biso 1.0 Ge
Ge28 1.0000000000 0.2188577511 0.2395764096 0.2286335106  Biso 1.0 Ge
Ge29 1.0000000000 0.7253221039 0.7561887204 0.7885053556  Biso 1.0 Ge
Ge30 1.0000000000 0.2797972682 0.7205134397 0.2373981664  Biso 1.0 Ge
Ge31 1.0000000000 0.7642112570 0.2254834374 0.2649142744  Biso 1.0 Ge
Ge32 1.0000000000 0.7656827575 0.7754699504 0.2966581645  Biso 1.0 Ge
K33 1.0000000000 0.0053938679 0.0177166159 0.9937210654  Biso 1.0 K
K34 1.0000000000 0.9748332307 0.5460884377 0.0268728731  Biso 1.0 K
K35 1.0000000000 0.5131155709 0.9818186941 1.0048561577  Biso 1.0 K
K36 1.0000000000 0.0273678079 0.0283030614 0.5270226271  Biso 1.0 K
K37 1.0000000000 0.5298467867 0.4533273072 0.9978235729  Biso 1.0 K
K38 1.0000000000 0.9859034973 0.5074968596 0.5245720343  Biso 1.0 K
K39 1.0000000000 0.5077681748 0.9575534876 0.5042651945  Biso 1.0 K
K40 1.0000000000 0.4688755098 0.4587734383 0.4731412978  Biso 1.0 K
