# AFLOW.org Repositories
# Br12K4Mg4
data_Br12K4Mg4
_pd_phase_name Br12K4Mg4
_cell_length_a  7.5827022520
_cell_length_b  7.4253925729
_cell_length_c  10.5957825336
_cell_angle_alpha  90.0019104484
_cell_angle_beta  89.9993694690
_cell_angle_gamma  89.9863364923
_symmetry_space_group_name_H-M  'P1'
_symmetry_Int_Tables_Number  1
loop_
_symmetry_equiv_pos_site_id
_symmetry_equiv_pos_as_xyz
  1  x,y,z
loop_
 _atom_site_label
 _atom_site_occupancy
 _atom_site_fract_x
 _atom_site_fract_y
 _atom_site_fract_z
 _atom_site_thermal_displace_type
 _atom_site_B_iso_or_equiv
 _atom_site_type_symbol
Br1 1.0000000000 0.0001342894 0.4237322418 0.0049054013  Biso 1.0 Br
Br2 1.0000000000 0.9796558717 0.5781087504 0.5048319600  Biso 1.0 Br
Br3 1.0000000000 0.4978607021 0.0772355437 0.0048268232  Biso 1.0 Br
Br4 1.0000000000 0.4815130462 0.9242110123 0.5049617447  Biso 1.0 Br
Br5 1.0000000000 0.2843958376 0.2965617657 0.7155496947  Biso 1.0 Br
Br6 1.0000000000 0.2845359776 0.2968332889 0.2933871679  Biso 1.0 Br
Br7 1.0000000000 0.6954884606 0.7057200232 0.7939235064  Biso 1.0 Br
Br8 1.0000000000 0.6951748321 0.7055545347 0.2158117282  Biso 1.0 Br
Br9 1.0000000000 0.7833703872 0.2066683319 0.7167578112  Biso 1.0 Br
Br10 1.0000000000 0.7831793231 0.2062272278 0.2944544394  Biso 1.0 Br
Br11 1.0000000000 0.1943844034 0.7973323726 0.7929841197  Biso 1.0 Br
Br12 1.0000000000 0.1944534028 0.7972983394 0.2176621896  Biso 1.0 Br
K13 1.0000000000 0.9290265000 0.9839102430 0.0052833563  Biso 1.0 K
K14 1.0000000000 0.0509389779 0.0187315376 0.5047015039  Biso 1.0 K
K15 1.0000000000 0.4277136475 0.5180241635 0.0050926460  Biso 1.0 K
K16 1.0000000000 0.5492986001 0.4842029861 0.5053871807  Biso 1.0 K
Mg17 1.0000000000 0.9896364572 0.5010418615 0.7548017191  Biso 1.0 Mg
Mg18 1.0000000000 0.9897233444 0.5009514507 0.2547719882  Biso 1.0 Mg
Mg19 1.0000000000 0.4898795101 0.0009289287 0.7548447896  Biso 1.0 Mg
Mg20 1.0000000000 0.4900345339 0.0007672415 0.2548072483  Biso 1.0 Mg
