# AFLOW.org Repositories
# Cl12K4Mg4
data_Cl12K4Mg4
_pd_phase_name Cl12K4Mg4
_cell_length_a  7.0897114945
_cell_length_b  7.0214665438
_cell_length_c  10.0118834019
_cell_angle_alpha  89.9974841026
_cell_angle_beta  90.0011658258
_cell_angle_gamma  90.0006026691
_symmetry_space_group_name_H-M  'P1'
_symmetry_Int_Tables_Number  1
loop_
_symmetry_equiv_pos_site_id
_symmetry_equiv_pos_as_xyz
  1  x,y,z
loop_
 _atom_site_label
 _atom_site_occupancy
 _atom_site_fract_x
 _atom_site_fract_y
 _atom_site_fract_z
 _atom_site_thermal_displace_type
 _atom_site_B_iso_or_equiv
 _atom_site_type_symbol
Cl1 1.0000000000 0.2089087211 0.2201199723 0.2780628097  Biso 1.0 Cl
Cl2 1.0000000000 0.7828102614 0.7955385475 0.2186384580  Biso 1.0 Cl
Cl3 1.0000000000 0.2089052017 0.2207333272 0.7191031405  Biso 1.0 Cl
Cl4 1.0000000000 0.7832307801 0.7958161664 0.7782278401  Biso 1.0 Cl
Cl5 1.0000000000 0.9885945216 0.4505066676 0.9984929439  Biso 1.0 Cl
Cl6 1.0000000000 0.4892984820 0.0659948406 0.9984614768  Biso 1.0 Cl
Cl7 1.0000000000 0.0027223948 0.5656371700 0.4983134569  Biso 1.0 Cl
Cl8 1.0000000000 0.5023100565 0.9496250081 0.4985228862  Biso 1.0 Cl
Cl9 1.0000000000 0.7088920733 0.2950025025 0.2782218143  Biso 1.0 Cl
Cl10 1.0000000000 0.2826061435 0.7200967771 0.2188602133  Biso 1.0 Cl
Cl11 1.0000000000 0.7085766061 0.2956487548 0.7190276820  Biso 1.0 Cl
Cl12 1.0000000000 0.2827621267 0.7204491495 0.7778351761  Biso 1.0 Cl
K13 1.0000000000 0.0363549014 0.9995247385 0.9984369101  Biso 1.0 K
K14 1.0000000000 0.5354014997 0.5165796196 0.9983261210  Biso 1.0 K
K15 1.0000000000 0.9565864691 0.0161505906 0.4986182785  Biso 1.0 K
K16 1.0000000000 0.4544114775 0.4973429820 0.4980450771  Biso 1.0 K
Mg17 1.0000000000 0.9956080404 0.5078513770 0.2483828284  Biso 1.0 Mg
Mg18 1.0000000000 0.4960056074 0.0075938533 0.2484556328  Biso 1.0 Mg
Mg19 1.0000000000 0.9957521806 0.5080888345 0.7483823232  Biso 1.0 Mg
Mg20 1.0000000000 0.4961024513 0.0078580672 0.7484504504  Biso 1.0 Mg
