# AFLOW.org Repositories
# F3K1Mg1
data_F3K1Mg1
_pd_phase_name F3K1Mg1
_cell_length_a  4.0485136100
_cell_length_b  4.0485136100
_cell_length_c  4.0485136100
_cell_angle_alpha  90.0000000000
_cell_angle_beta  90.0000000000
_cell_angle_gamma  90.0000000000
_symmetry_space_group_name_H-M  'P1'
_symmetry_Int_Tables_Number  1
loop_
_symmetry_equiv_pos_site_id
_symmetry_equiv_pos_as_xyz
  1  x,y,z
loop_
 _atom_site_label
 _atom_site_occupancy
 _atom_site_fract_x
 _atom_site_fract_y
 _atom_site_fract_z
 _atom_site_thermal_displace_type
 _atom_site_B_iso_or_equiv
 _atom_site_type_symbol
F1 1.0000000000 0.5000000408 0.0000000000 0.5000000926  Biso 1.0 F
F2 1.0000000000 0.9999999210 0.4999999321 0.4999999568  Biso 1.0 F
F3 1.0000000000 0.4999999790 0.4999999197 0.9999999506  Biso 1.0 F
K4 1.0000000000 0.0000000000 0.9999999481 0.9999999975  Biso 1.0 K
Mg5 1.0000000000 0.4999999963 0.4999999395 0.4999999988  Biso 1.0 Mg
