# AFLOW.org Repositories
# Cl24K8Pb8
data_Cl24K8Pb8
_pd_phase_name Cl24K8Pb8
_cell_length_a  10.9096370900
_cell_length_b  11.0049515090
_cell_length_c  11.0070663446
_cell_angle_alpha  86.8246168095
_cell_angle_beta  90.0000000000
_cell_angle_gamma  90.0000000000
_symmetry_space_group_name_H-M  'P1'
_symmetry_Int_Tables_Number  1
loop_
_symmetry_equiv_pos_site_id
_symmetry_equiv_pos_as_xyz
  1  x,y,z
loop_
 _atom_site_label
 _atom_site_occupancy
 _atom_site_fract_x
 _atom_site_fract_y
 _atom_site_fract_z
 _atom_site_thermal_displace_type
 _atom_site_B_iso_or_equiv
 _atom_site_type_symbol
Cl1 1.0000000000 0.3093640909 0.3088792797 0.0055524908  Biso 1.0 Cl
Cl2 1.0000000000 0.1829318926 0.1918625537 0.5110302892  Biso 1.0 Cl
Cl3 1.0000000000 0.1901463076 0.6932052604 0.0115812156  Biso 1.0 Cl
Cl4 1.0000000000 0.6780497884 0.3076126754 0.0001668237  Biso 1.0 Cl
Cl5 1.0000000000 0.3206754561 0.8054729985 0.5059415684  Biso 1.0 Cl
Cl6 1.0000000000 0.8155705480 0.2008942836 0.5054319501  Biso 1.0 Cl
Cl7 1.0000000000 0.8231366081 0.6972654496 0.0075370822  Biso 1.0 Cl
Cl8 1.0000000000 0.6884647544 0.8069669851 0.5019450394  Biso 1.0 Cl
Cl9 1.0000000000 0.3208567811 0.9992940904 0.8183007584  Biso 1.0 Cl
Cl10 1.0000000000 0.1729064252 0.0017979896 0.2072252670  Biso 1.0 Cl
Cl11 1.0000000000 0.1901486221 0.5049430750 0.7021511135  Biso 1.0 Cl
Cl12 1.0000000000 0.6862377161 0.9983179384 0.8046542111  Biso 1.0 Cl
Cl13 1.0000000000 0.3033347271 0.4965334748 0.3200406131  Biso 1.0 Cl
Cl14 1.0000000000 0.8046264452 0.0019479940 0.1926080993  Biso 1.0 Cl
Cl15 1.0000000000 0.8223221841 0.5039052801 0.6989300086  Biso 1.0 Cl
Cl16 1.0000000000 0.6720773550 0.4963652092 0.3046819061  Biso 1.0 Cl
Cl17 1.0000000000 0.0002969879 0.2128604075 0.8445218566  Biso 1.0 Cl
Cl18 1.0000000000 0.9963854865 0.3403971537 0.2168238230  Biso 1.0 Cl
Cl19 1.0000000000 0.0044805523 0.8430469725 0.7185319770  Biso 1.0 Cl
Cl20 1.0000000000 0.5003499122 0.2891911565 0.6654291819  Biso 1.0 Cl
Cl21 1.0000000000 0.9996127818 0.7123497658 0.3486911293  Biso 1.0 Cl
Cl22 1.0000000000 0.4962225897 0.1621890926 0.2926831836  Biso 1.0 Cl
Cl23 1.0000000000 0.5036605393 0.6642300239 0.7943771632  Biso 1.0 Cl
Cl24 1.0000000000 0.4998275273 0.7867796558 0.1697899086  Biso 1.0 Cl
K25 1.0000000000 0.9999994693 0.9506666411 0.9823435194  Biso 1.0 K
K26 1.0000000000 0.9923866771 0.9780001929 0.4558950728  Biso 1.0 K
K27 1.0000000000 0.0071753413 0.4763269263 0.9536345718  Biso 1.0 K
K28 1.0000000000 0.5146515923 0.0462172736 0.0326166881  Biso 1.0 K
K29 1.0000000000 0.0104647661 0.4482661600 0.4818909651  Biso 1.0 K
K30 1.0000000000 0.5024756658 0.0246819993 0.5558819073  Biso 1.0 K
K31 1.0000000000 0.4904437724 0.5251125871 0.0559083285  Biso 1.0 K
K32 1.0000000000 0.4956106647 0.5529075179 0.5300021643  Biso 1.0 K
Pb33 1.0000000000 0.2519509831 0.2501108438 0.7573317260  Biso 1.0 Pb
Pb34 1.0000000000 0.2462309734 0.2477295835 0.2571364935  Biso 1.0 Pb
Pb35 1.0000000000 0.2539008142 0.7529499478 0.7586913960  Biso 1.0 Pb
Pb36 1.0000000000 0.7507534359 0.2534821395 0.7543490151  Biso 1.0 Pb
Pb37 1.0000000000 0.2475591514 0.7507315481 0.2606550243  Biso 1.0 Pb
Pb38 1.0000000000 0.7465067612 0.2535201766 0.2529364326  Biso 1.0 Pb
Pb39 1.0000000000 0.7543100666 0.7502758774 0.7549404193  Biso 1.0 Pb
Pb40 1.0000000000 0.7496912961 0.7480588825 0.2542390070  Biso 1.0 Pb
