# AFLOW.org Repositories
# F24K8Pb8
data_F24K8Pb8
_pd_phase_name F24K8Pb8
_cell_length_a  9.4117007940
_cell_length_b  9.4078633817
_cell_length_c  9.4138342282
_cell_angle_alpha  89.8016193178
_cell_angle_beta  89.8495238046
_cell_angle_gamma  89.8434603711
_symmetry_space_group_name_H-M  'P1'
_symmetry_Int_Tables_Number  1
loop_
_symmetry_equiv_pos_site_id
_symmetry_equiv_pos_as_xyz
  1  x,y,z
loop_
 _atom_site_label
 _atom_site_occupancy
 _atom_site_fract_x
 _atom_site_fract_y
 _atom_site_fract_z
 _atom_site_thermal_displace_type
 _atom_site_B_iso_or_equiv
 _atom_site_type_symbol
F1 1.0000000000 0.0114267577 0.6765506908 0.2841373437  Biso 1.0 F
F2 1.0000000000 0.5114079827 0.7859747665 0.1730788312  Biso 1.0 F
F3 1.0000000000 0.0124928547 0.2879944757 0.1779943486  Biso 1.0 F
F4 1.0000000000 0.0138490542 0.7880636139 0.6747269070  Biso 1.0 F
F5 1.0000000000 0.5121985535 0.1759820640 0.2867584736  Biso 1.0 F
F6 1.0000000000 0.5136685024 0.6768012563 0.7842144327  Biso 1.0 F
F7 1.0000000000 0.0110313718 0.1781685696 0.7867457259  Biso 1.0 F
F8 1.0000000000 0.5111546211 0.2875969545 0.6763036152  Biso 1.0 F
F9 1.0000000000 0.7855529931 0.0135678859 0.1766188493  Biso 1.0 F
F10 1.0000000000 0.1762308239 0.0153372694 0.2866637940  Biso 1.0 F
F11 1.0000000000 0.6736064223 0.5128636431 0.2859418327  Biso 1.0 F
F12 1.0000000000 0.6752700856 0.0137159558 0.7870254764  Biso 1.0 F
F13 1.0000000000 0.2844398682 0.5147761072 0.1733860660  Biso 1.0 F
F14 1.0000000000 0.2860551081 0.0153018897 0.6778644275  Biso 1.0 F
F15 1.0000000000 0.7858543318 0.5142626771 0.6738462086  Biso 1.0 F
F16 1.0000000000 0.1756193869 0.5155014402 0.7853347105  Biso 1.0 F
F17 1.0000000000 0.7851673312 0.6745698679 0.0109366893  Biso 1.0 F
F18 1.0000000000 0.1735551557 0.7893751738 0.0109298556  Biso 1.0 F
F19 1.0000000000 0.6762839528 0.2867893465 0.0143671421  Biso 1.0 F
F20 1.0000000000 0.6763313900 0.7870755403 0.5111211287  Biso 1.0 F
F21 1.0000000000 0.2858542451 0.1811041142 0.0144217218  Biso 1.0 F
F22 1.0000000000 0.2861369108 0.6794788703 0.5113779670  Biso 1.0 F
F23 1.0000000000 0.7847583514 0.1754763168 0.5145040160  Biso 1.0 F
F24 1.0000000000 0.1744563390 0.2890691371 0.5142056172  Biso 1.0 F
K25 1.0000000000 0.0299233471 0.0336003021 0.0316303386  Biso 1.0 K
K26 1.0000000000 0.5291690560 0.0327319771 0.0310893244  Biso 1.0 K
K27 1.0000000000 0.0297642036 0.5301889883 0.0295917112  Biso 1.0 K
K28 1.0000000000 0.0299356615 0.0326168138 0.5310011359  Biso 1.0 K
K29 1.0000000000 0.5296806025 0.5303260284 0.0289473566  Biso 1.0 K
K30 1.0000000000 0.5296370251 0.0303401977 0.5316760639  Biso 1.0 K
K31 1.0000000000 0.0304709318 0.5338218020 0.5297933096  Biso 1.0 K
K32 1.0000000000 0.5295621688 0.5321822153 0.5302314019  Biso 1.0 K
Pb33 1.0000000000 0.7536906720 0.7548002568 0.2533133706  Biso 1.0 Pb
Pb34 1.0000000000 0.2541665621 0.7566248027 0.2531635068  Biso 1.0 Pb
Pb35 1.0000000000 0.7537594720 0.2552238286 0.2563466733  Biso 1.0 Pb
Pb36 1.0000000000 0.7549096417 0.7555350437 0.7544855051  Biso 1.0 Pb
Pb37 1.0000000000 0.2542074441 0.2572958546 0.2559899067  Biso 1.0 Pb
Pb38 1.0000000000 0.2547902322 0.7570702269 0.7547489752  Biso 1.0 Pb
Pb39 1.0000000000 0.7534887042 0.2558958452 0.7551460594  Biso 1.0 Pb
Pb40 1.0000000000 0.2537565069 0.2576663537 0.7553332931  Biso 1.0 Pb
