# AFLOW.org Repositories
# I12K4Pb4
data_I12K4Pb4
_pd_phase_name I12K4Pb4
_cell_length_a  8.3649725843
_cell_length_b  8.9543322996
_cell_length_c  12.1738669326
_cell_angle_alpha  90.1676164516
_cell_angle_beta  90.0084061638
_cell_angle_gamma  89.9875494277
_symmetry_space_group_name_H-M  'P1'
_symmetry_Int_Tables_Number  1
loop_
_symmetry_equiv_pos_site_id
_symmetry_equiv_pos_as_xyz
  1  x,y,z
loop_
 _atom_site_label
 _atom_site_occupancy
 _atom_site_fract_x
 _atom_site_fract_y
 _atom_site_fract_z
 _atom_site_thermal_displace_type
 _atom_site_B_iso_or_equiv
 _atom_site_type_symbol
I1 1.0000000000 0.8224162096 0.1907603831 0.3201483425  Biso 1.0 I
I2 1.0000000000 0.1859420805 0.8105923870 0.1947082515  Biso 1.0 I
I3 1.0000000000 0.8329334269 0.1861004388 0.6913923775  Biso 1.0 I
I4 1.0000000000 0.2033563422 0.8006243284 0.8243977990  Biso 1.0 I
I5 1.0000000000 0.3213991783 0.3039549837 0.1924930408  Biso 1.0 I
I6 1.0000000000 0.6865971472 0.6861245036 0.3179612900  Biso 1.0 I
I7 1.0000000000 0.3324604333 0.3050989561 0.8221912382  Biso 1.0 I
I8 1.0000000000 0.7030290888 0.6900414681 0.6888915497  Biso 1.0 I
I9 1.0000000000 0.8785017653 0.4562370330 0.0049207166  Biso 1.0 I
I10 1.0000000000 0.6445594501 0.9537286011 0.0077878194  Biso 1.0 I
I11 1.0000000000 0.1449750615 0.5396311444 0.5052775438  Biso 1.0 I
I12 1.0000000000 0.3779182529 0.0366390456 0.5079505977  Biso 1.0 I
K13 1.0000000000 0.0488865735 0.0913440014 0.0012204535  Biso 1.0 K
K14 1.0000000000 0.4736454331 0.5892934605 0.0130650296  Biso 1.0 K
K15 1.0000000000 0.9741820536 0.9028901100 0.4972428213  Biso 1.0 K
K16 1.0000000000 0.5476454231 0.4017048124 0.5099570889  Biso 1.0 K
Pb17 1.0000000000 0.0074703406 0.4960507171 0.2554635993  Biso 1.0 Pb
Pb18 1.0000000000 0.5063930939 0.9954618386 0.2584195475  Biso 1.0 Pb
Pb19 1.0000000000 0.0150711446 0.4963820635 0.7550620770  Biso 1.0 Pb
Pb20 1.0000000000 0.5164860686 0.9952981190 0.7584953729  Biso 1.0 Pb
