# AFLOW.org Repositories
# Cl24K8Sn8
data_Cl24K8Sn8
_pd_phase_name Cl24K8Sn8
_cell_length_a  11.0374655870
_cell_length_b  10.9115602976
_cell_length_c  11.0810492593
_cell_angle_alpha  89.9242474684
_cell_angle_beta  86.0749953551
_cell_angle_gamma  89.9276975780
_symmetry_space_group_name_H-M  'P1'
_symmetry_Int_Tables_Number  1
loop_
_symmetry_equiv_pos_site_id
_symmetry_equiv_pos_as_xyz
  1  x,y,z
loop_
 _atom_site_label
 _atom_site_occupancy
 _atom_site_fract_x
 _atom_site_fract_y
 _atom_site_fract_z
 _atom_site_thermal_displace_type
 _atom_site_B_iso_or_equiv
 _atom_site_type_symbol
Cl1 1.0000000000 0.0160730266 0.6956659202 0.3298134766  Biso 1.0 Cl
Cl2 1.0000000000 0.5194028903 0.8335164681 0.2119056725  Biso 1.0 Cl
Cl3 1.0000000000 0.9846692177 0.3362079165 0.3009307920  Biso 1.0 Cl
Cl4 1.0000000000 0.9711990496 0.8026225547 0.7147754233  Biso 1.0 Cl
Cl5 1.0000000000 0.4874314658 0.1948904075 0.1808837479  Biso 1.0 Cl
Cl6 1.0000000000 0.4611607427 0.6937551853 0.8425462802  Biso 1.0 Cl
Cl7 1.0000000000 0.9856306929 0.1822433208 0.6885428376  Biso 1.0 Cl
Cl8 1.0000000000 0.4819581047 0.3236816142 0.7873018046  Biso 1.0 Cl
Cl9 1.0000000000 0.8557483147 0.0290479212 0.2184328465  Biso 1.0 Cl
Cl10 1.0000000000 0.2164075840 0.9712732659 0.3585219666  Biso 1.0 Cl
Cl11 1.0000000000 0.6611754854 0.5290681312 0.2801604007  Biso 1.0 Cl
Cl12 1.0000000000 0.7077538429 0.9704377395 0.8502660310  Biso 1.0 Cl
Cl13 1.0000000000 0.2848627136 0.4741981610 0.1727935078  Biso 1.0 Cl
Cl14 1.0000000000 0.3490143808 0.0167515902 0.7156529100  Biso 1.0 Cl
Cl15 1.0000000000 0.7849455886 0.4693889083 0.6579762287  Biso 1.0 Cl
Cl16 1.0000000000 0.1655697614 0.5145696651 0.8001176531  Biso 1.0 Cl
Cl17 1.0000000000 0.7818471305 0.6624556173 0.9789641574  Biso 1.0 Cl
Cl18 1.0000000000 0.1686155805 0.8029933261 0.9983654091  Biso 1.0 Cl
Cl19 1.0000000000 0.8239421211 0.3036324445 0.0175905161  Biso 1.0 Cl
Cl20 1.0000000000 0.6895723503 0.8060945249 0.4811450178  Biso 1.0 Cl
Cl21 1.0000000000 0.2111383990 0.1768696843 0.9795573742  Biso 1.0 Cl
Cl22 1.0000000000 0.2986572064 0.6679344136 0.4940239463  Biso 1.0 Cl
Cl23 1.0000000000 0.7079016960 0.1705240523 0.5211202716  Biso 1.0 Cl
Cl24 1.0000000000 0.3199524174 0.3004460153 0.4705638984  Biso 1.0 Cl
K25 1.0000000000 0.9709622247 0.0166379155 0.9460303005  Biso 1.0 K
K26 1.0000000000 0.4418990629 0.9797845950 0.9804161989  Biso 1.0 K
K27 1.0000000000 0.0238544281 0.5201565164 0.0606871295  Biso 1.0 K
K28 1.0000000000 0.9458603213 0.9722031610 0.4823445815  Biso 1.0 K
K29 1.0000000000 0.5436302848 0.4748191661 0.0262226502  Biso 1.0 K
K30 1.0000000000 0.4798023524 0.0154988215 0.4499647640  Biso 1.0 K
K31 1.0000000000 0.0545851017 0.4868948852 0.5359705851  Biso 1.0 K
K32 1.0000000000 0.5266699560 0.4993617247 0.5397271105  Biso 1.0 K
Sn33 1.0000000000 0.7385367198 0.7569616966 0.2500456693  Biso 1.0 Sn
Sn34 1.0000000000 0.2481839992 0.7448788103 0.2778635910  Biso 1.0 Sn
Sn35 1.0000000000 0.7717267054 0.2545495673 0.2476248092  Biso 1.0 Sn
Sn36 1.0000000000 0.7398997873 0.7463523412 0.7643939709  Biso 1.0 Sn
Sn37 1.0000000000 0.2579732033 0.2462113252 0.2469265375  Biso 1.0 Sn
Sn38 1.0000000000 0.2396253559 0.7434724132 0.7731722067  Biso 1.0 Sn
Sn39 1.0000000000 0.7533966215 0.2425962997 0.7382205387  Biso 1.0 Sn
Sn40 1.0000000000 0.2619443020 0.2397599493 0.7513303894  Biso 1.0 Sn
