# AFLOW.org Repositories
# Cl12K4Sr4
data_Cl12K4Sr4
_pd_phase_name Cl12K4Sr4
_cell_length_a  7.5691360313
_cell_length_b  7.9588835185
_cell_length_c  10.9119359757
_cell_angle_alpha  90.0127313333
_cell_angle_beta  90.0317855536
_cell_angle_gamma  89.9075576633
_symmetry_space_group_name_H-M  'P1'
_symmetry_Int_Tables_Number  1
loop_
_symmetry_equiv_pos_site_id
_symmetry_equiv_pos_as_xyz
  1  x,y,z
loop_
 _atom_site_label
 _atom_site_occupancy
 _atom_site_fract_x
 _atom_site_fract_y
 _atom_site_fract_z
 _atom_site_thermal_displace_type
 _atom_site_B_iso_or_equiv
 _atom_site_type_symbol
Cl1 1.0000000000 0.3084443736 0.2948775982 0.6837705034  Biso 1.0 Cl
Cl2 1.0000000000 0.6963194727 0.6922096720 0.8155663842  Biso 1.0 Cl
Cl3 1.0000000000 0.3085422619 0.2971410725 0.3165204667  Biso 1.0 Cl
Cl4 1.0000000000 0.6983696906 0.6962527058 0.1828444430  Biso 1.0 Cl
Cl5 1.0000000000 0.3814331655 0.0454639920 0.0004347279  Biso 1.0 Cl
Cl6 1.0000000000 0.1254407541 0.5447679596 0.0004192724  Biso 1.0 Cl
Cl7 1.0000000000 0.6286646882 0.9421041740 0.5003889982  Biso 1.0 Cl
Cl8 1.0000000000 0.8765747370 0.4423418840 0.5003466677  Biso 1.0 Cl
Cl9 1.0000000000 0.1984351200 0.7950316170 0.6840702652  Biso 1.0 Cl
Cl10 1.0000000000 0.8107250533 0.1926098638 0.8161818255  Biso 1.0 Cl
Cl11 1.0000000000 0.1980599706 0.7965523200 0.3163964765  Biso 1.0 Cl
Cl12 1.0000000000 0.8090938809 0.1954533020 0.1840765041  Biso 1.0 Cl
K13 1.0000000000 0.9797350183 0.9255049675 0.0010496700  Biso 1.0 K
K14 1.0000000000 0.5273462413 0.4256110342 0.0012143627  Biso 1.0 K
K15 1.0000000000 0.0281254019 0.0637808861 0.5007315566  Biso 1.0 K
K16 1.0000000000 0.4755643009 0.5655440184 0.5017566518  Biso 1.0 K
Sr17 1.0000000000 0.5042715285 0.9945820232 0.7502592465  Biso 1.0 Sr
Sr18 1.0000000000 0.0026438374 0.4941187809 0.7500105616  Biso 1.0 Sr
Sr19 1.0000000000 0.5038862385 0.9962034749 0.2510070322  Biso 1.0 Sr
Sr20 1.0000000000 0.0020695283 0.4958688752 0.2509211393  Biso 1.0 Sr
