# AFLOW.org Repositories
# F24K8Sr8
data_F24K8Sr8
_pd_phase_name F24K8Sr8
_cell_length_a  9.2024590670
_cell_length_b  9.2435235530
_cell_length_c  9.2464513413
_cell_angle_alpha  88.2927900450
_cell_angle_beta  90.0000000000
_cell_angle_gamma  90.0000000000
_symmetry_space_group_name_H-M  'P1'
_symmetry_Int_Tables_Number  1
loop_
_symmetry_equiv_pos_site_id
_symmetry_equiv_pos_as_xyz
  1  x,y,z
loop_
 _atom_site_label
 _atom_site_occupancy
 _atom_site_fract_x
 _atom_site_fract_y
 _atom_site_fract_z
 _atom_site_thermal_displace_type
 _atom_site_B_iso_or_equiv
 _atom_site_type_symbol
F1 1.0000000000 0.1903756384 0.9956102946 0.2962138475  Biso 1.0 F
F2 1.0000000000 0.3130479081 0.4986149309 0.1986720123  Biso 1.0 F
F3 1.0000000000 0.8146336328 0.9996089723 0.2950891840  Biso 1.0 F
F4 1.0000000000 0.3014898518 0.9993132998 0.6942587827  Biso 1.0 F
F5 1.0000000000 0.6894168389 0.5025240167 0.1999263884  Biso 1.0 F
F6 1.0000000000 0.1808022430 0.4966015716 0.7930533831  Biso 1.0 F
F7 1.0000000000 0.6807608786 0.0028041780 0.7012999996  Biso 1.0 F
F8 1.0000000000 0.8010152337 0.4998800782 0.8013060531  Biso 1.0 F
F9 1.0000000000 0.9985105973 0.6659480666 0.2777708178  Biso 1.0 F
F10 1.0000000000 0.9997064679 0.2797663248 0.1660558716  Biso 1.0 F
F11 1.0000000000 0.4985474314 0.8322912685 0.2179671620  Biso 1.0 F
F12 1.0000000000 0.9958030721 0.7796695384 0.6646513389  Biso 1.0 F
F13 1.0000000000 0.4999670552 0.2183511848 0.3311404835  Biso 1.0 F
F14 1.0000000000 0.9954918325 0.1669134665 0.7784376085  Biso 1.0 F
F15 1.0000000000 0.4962763992 0.7209917523 0.8303989403  Biso 1.0 F
F16 1.0000000000 0.4954630351 0.3319697308 0.7179585907  Biso 1.0 F
F17 1.0000000000 0.1834228229 0.7923969455 0.9964575256  Biso 1.0 F
F18 1.0000000000 0.3050711282 0.1939447818 0.9983544658  Biso 1.0 F
F19 1.0000000000 0.8064478968 0.8018973872 0.9962554470  Biso 1.0 F
F20 1.0000000000 0.3048177014 0.6939780932 0.4993432362  Biso 1.0 F
F21 1.0000000000 0.6843294465 0.2051579214 0.0000316586  Biso 1.0 F
F22 1.0000000000 0.1852609664 0.2938788371 0.4956140806  Biso 1.0 F
F23 1.0000000000 0.6835801631 0.7052823515 0.4990989725  Biso 1.0 F
F24 1.0000000000 0.8073539981 0.3032477474 0.4969274959  Biso 1.0 F
K25 1.0000000000 0.0014772095 0.0161432134 0.0310577215  Biso 1.0 K
K26 1.0000000000 0.9955824474 0.5320657882 0.0139826042  Biso 1.0 K
K27 1.0000000000 0.5011000654 0.9829292410 0.9664361252  Biso 1.0 K
K28 1.0000000000 0.0026602216 0.0319711867 0.5141704235  Biso 1.0 K
K29 1.0000000000 0.5042818149 0.4686716838 0.9803111582  Biso 1.0 K
K30 1.0000000000 0.0024586037 0.5161939603 0.5287795265  Biso 1.0 K
K31 1.0000000000 0.4948818253 0.9662902952 0.4812633979  Biso 1.0 K
K32 1.0000000000 0.5004165285 0.4818023156 0.4656470636  Biso 1.0 K
Sr33 1.0000000000 0.2493129307 0.7467289513 0.2470302517  Biso 1.0 Sr
Sr34 1.0000000000 0.2501770617 0.2477933375 0.2471395821  Biso 1.0 Sr
Sr35 1.0000000000 0.7492888314 0.7515737520 0.2485191960  Biso 1.0 Sr
Sr36 1.0000000000 0.2457563140 0.7478574888 0.7476175279  Biso 1.0 Sr
Sr37 1.0000000000 0.7498511398 0.2504601366 0.2483463882  Biso 1.0 Sr
Sr38 1.0000000000 0.2462861506 0.2483228191 0.7480940032  Biso 1.0 Sr
Sr39 1.0000000000 0.7463330616 0.7516890802 0.7475501349  Biso 1.0 Sr
Sr40 1.0000000000 0.7463878905 0.2506453437 0.7476863362  Biso 1.0 Sr
