# AFLOW.org Repositories
# I24K8Sr8
data_I24K8Sr8
_pd_phase_name I24K8Sr8
_cell_length_a  12.3222268530
_cell_length_b  12.3522289577
_cell_length_c  12.3597873953
_cell_angle_alpha  86.0504722623
_cell_angle_beta  89.7744848622
_cell_angle_gamma  90.2782384541
_symmetry_space_group_name_H-M  'P1'
_symmetry_Int_Tables_Number  1
loop_
_symmetry_equiv_pos_site_id
_symmetry_equiv_pos_as_xyz
  1  x,y,z
loop_
 _atom_site_label
 _atom_site_occupancy
 _atom_site_fract_x
 _atom_site_fract_y
 _atom_site_fract_z
 _atom_site_thermal_displace_type
 _atom_site_B_iso_or_equiv
 _atom_site_type_symbol
I1 1.0000000000 0.0015504005 0.1611619771 0.2906664375  Biso 1.0 I
I2 1.0000000000 0.5029498728 0.3414002308 0.2037773044  Biso 1.0 I
I3 1.0000000000 0.0022273958 0.7945874026 0.1560086571  Biso 1.0 I
I4 1.0000000000 0.0027931307 0.2923341046 0.6584640630  Biso 1.0 I
I5 1.0000000000 0.5012834729 0.7077032045 0.3346032990  Biso 1.0 I
I6 1.0000000000 0.5021332141 0.2047696679 0.8370177133  Biso 1.0 I
I7 1.0000000000 0.0055245548 0.6626547458 0.7914225754  Biso 1.0 I
I8 1.0000000000 0.5054035878 0.8414831065 0.7036093804  Biso 1.0 I
I9 1.0000000000 0.3177843462 0.0066308465 0.1834349700  Biso 1.0 I
I10 1.0000000000 0.6847469262 0.0020636963 0.1868971101  Biso 1.0 I
I11 1.0000000000 0.1802993946 0.4987043032 0.3066164112  Biso 1.0 I
I12 1.0000000000 0.1862394661 0.9977528914 0.8088098076  Biso 1.0 I
I13 1.0000000000 0.8162476493 0.4954282093 0.3139122170  Biso 1.0 I
I14 1.0000000000 0.8222319780 0.9950466714 0.8098275565  Biso 1.0 I
I15 1.0000000000 0.3225471684 0.5049574778 0.6822034865  Biso 1.0 I
I16 1.0000000000 0.6867011402 0.5018871810 0.6876216405  Biso 1.0 I
I17 1.0000000000 0.1864746224 0.3173078892 0.9928238233  Biso 1.0 I
I18 1.0000000000 0.8203081940 0.3094757193 0.9936891357  Biso 1.0 I
I19 1.0000000000 0.3230022324 0.6904571814 0.0004456802  Biso 1.0 I
I20 1.0000000000 0.3179002348 0.1905329017 0.4996456607  Biso 1.0 I
I21 1.0000000000 0.6874644502 0.6846607045 0.0019190303  Biso 1.0 I
I22 1.0000000000 0.6820309472 0.1866127849 0.5014200865  Biso 1.0 I
I23 1.0000000000 0.1894127523 0.8138216726 0.4932370281  Biso 1.0 I
I24 1.0000000000 0.8247389810 0.8088429482 0.4941743662  Biso 1.0 I
K25 1.0000000000 0.0036020766 0.0637311211 0.0238844676  Biso 1.0 K
K26 1.0000000000 0.5038411360 0.9360474133 0.9721724759  Biso 1.0 K
K27 1.0000000000 0.9974306440 0.5280827515 0.0583687458  Biso 1.0 K
K28 1.0000000000 0.0061184928 0.0268961636 0.5592191042  Biso 1.0 K
K29 1.0000000000 0.4996396373 0.4711264613 0.9355006562  Biso 1.0 K
K30 1.0000000000 0.4950137708 0.9740881615 0.4344324664  Biso 1.0 K
K31 1.0000000000 0.0029547336 0.5608034480 0.5263866541  Biso 1.0 K
K32 1.0000000000 0.5098757893 0.4397876043 0.4692420994  Biso 1.0 K
Sr33 1.0000000000 0.2516609526 0.2531470326 0.2464217495  Biso 1.0 Sr
Sr34 1.0000000000 0.7519591269 0.2488382294 0.2475412442  Biso 1.0 Sr
Sr35 1.0000000000 0.2510680372 0.7519613426 0.2454865322  Biso 1.0 Sr
Sr36 1.0000000000 0.2529961837 0.2518572203 0.7465404774  Biso 1.0 Sr
Sr37 1.0000000000 0.7527305078 0.7491843394 0.2485862859  Biso 1.0 Sr
Sr38 1.0000000000 0.7517192136 0.2478009883 0.7467605852  Biso 1.0 Sr
Sr39 1.0000000000 0.2554355844 0.7515284210 0.7469654996  Biso 1.0 Sr
Sr40 1.0000000000 0.7545489962 0.7489023294 0.7477969872  Biso 1.0 Sr
