# AFLOW.org Repositories
# Be8F24Li8
data_Be8F24Li8
_pd_phase_name Be8F24Li8
_cell_length_a  8.6074346980
_cell_length_b  5.3314418325
_cell_length_c  9.1989011315
_cell_angle_alpha  90.0272377449
_cell_angle_beta  88.9950686878
_cell_angle_gamma  90.0322251640
_symmetry_space_group_name_H-M  'P1'
_symmetry_Int_Tables_Number  1
loop_
_symmetry_equiv_pos_site_id
_symmetry_equiv_pos_as_xyz
  1  x,y,z
loop_
 _atom_site_label
 _atom_site_occupancy
 _atom_site_fract_x
 _atom_site_fract_y
 _atom_site_fract_z
 _atom_site_thermal_displace_type
 _atom_site_B_iso_or_equiv
 _atom_site_type_symbol
Be1 1.0000000000 0.1499776537 0.2542170535 0.2747804328  Biso 1.0 Be
Be2 1.0000000000 0.6628642279 0.2539987886 0.2236485562  Biso 1.0 Be
Be3 1.0000000000 0.2187649271 0.7540059981 0.2023843888  Biso 1.0 Be
Be4 1.0000000000 0.2585263324 0.2526535690 0.7039223379  Biso 1.0 Be
Be5 1.0000000000 0.6661155190 0.7540302018 0.1755806402  Biso 1.0 Be
Be6 1.0000000000 0.7350566511 0.2531073222 0.8036827545  Biso 1.0 Be
Be7 1.0000000000 0.1820332053 0.7526905329 0.7764993601  Biso 1.0 Be
Be8 1.0000000000 0.7260167388 0.7530555238 0.6233052711  Biso 1.0 Be
F9 1.0000000000 0.0186809688 0.2542145734 0.3894609229  Biso 1.0 F
F10 1.0000000000 0.5149924508 0.2537774219 0.1293842882  Biso 1.0 F
F11 1.0000000000 0.0460974344 0.7538168416 0.1652288567  Biso 1.0 F
F12 1.0000000000 0.0849006393 0.2515845083 0.6658810759  Biso 1.0 F
F13 1.0000000000 0.5377777173 0.7540702589 0.2927623026  Biso 1.0 F
F14 1.0000000000 0.5647827352 0.2546029419 0.8555690605  Biso 1.0 F
F15 1.0000000000 0.0417128013 0.7533550987 0.8809571102  Biso 1.0 F
F16 1.0000000000 0.5555065801 0.7527464027 0.5764308921  Biso 1.0 F
F17 1.0000000000 0.2501284515 0.0022832430 0.3000042384  Biso 1.0 F
F18 1.0000000000 0.7626754679 0.0081115692 0.1893025420  Biso 1.0 F
F19 1.0000000000 0.2505317978 0.5057459022 0.2997991733  Biso 1.0 F
F20 1.0000000000 0.2860042928 1.0030048180 0.8008755784  Biso 1.0 F
F21 1.0000000000 0.7626161292 0.4999666934 0.1892478525  Biso 1.0 F
F22 1.0000000000 0.7631777861 0.0048778798 0.7094340674  Biso 1.0 F
F23 1.0000000000 0.2853967586 0.5020680157 0.8013210336  Biso 1.0 F
F24 1.0000000000 0.7645992693 0.4987071830 0.7070733254  Biso 1.0 F
F25 1.0000000000 0.0985444407 0.2538431194 0.1152476839  Biso 1.0 F
F26 1.0000000000 0.8562637875 0.2539434990 0.9256040863  Biso 1.0 F
F27 1.0000000000 0.3210613400 0.7540574006 0.0653536879  Biso 1.0 F
F28 1.0000000000 0.3648542004 0.2530252916 0.5682575704  Biso 1.0 F
F29 1.0000000000 0.6136643450 0.7539230382 1.0146602340  Biso 1.0 F
F30 1.0000000000 0.6124273674 0.2541546618 0.3845047802  Biso 1.0 F
F31 1.0000000000 0.1374519111 0.7516833079 0.6140475951  Biso 1.0 F
F32 1.0000000000 0.8511426705 0.7544912435 0.5001312887  Biso 1.0 F
Li33 1.0000000000 0.9735535682 0.0037827488 0.0269070187  Biso 1.0 Li
Li34 1.0000000000 0.4649456368 0.0068533267 0.9806719193  Biso 1.0 Li
Li35 1.0000000000 0.9733871053 0.5036690073 0.0272842456  Biso 1.0 Li
Li36 1.0000000000 1.0028557083 0.0035276429 0.5368358242  Biso 1.0 Li
Li37 1.0000000000 0.4647598635 0.5008284799 0.9810191398  Biso 1.0 Li
Li38 1.0000000000 0.4769824222 0.0031847775 0.4488715085  Biso 1.0 Li
Li39 1.0000000000 0.9994516787 0.5004953721 0.5396187164  Biso 1.0 Li
Li40 1.0000000000 0.4756201596 0.5039661294 0.4481241894  Biso 1.0 Li
