# AFLOW.org Repositories
# Ca4F12Li4
data_Ca4F12Li4
_pd_phase_name Ca4F12Li4
_cell_length_a  5.2567578342
_cell_length_b  5.7884557460
_cell_length_c  7.4703739830
_cell_angle_alpha  90.0020113180
_cell_angle_beta  90.0095424937
_cell_angle_gamma  89.9398576470
_symmetry_space_group_name_H-M  'P1'
_symmetry_Int_Tables_Number  1
loop_
_symmetry_equiv_pos_site_id
_symmetry_equiv_pos_as_xyz
  1  x,y,z
loop_
 _atom_site_label
 _atom_site_occupancy
 _atom_site_fract_x
 _atom_site_fract_y
 _atom_site_fract_z
 _atom_site_thermal_displace_type
 _atom_site_B_iso_or_equiv
 _atom_site_type_symbol
Ca1 1.0000000000 0.5239032558 0.9093585791 0.7022538495  Biso 1.0 Ca
Ca2 1.0000000000 0.9800697780 0.4093888427 0.7013034071  Biso 1.0 Ca
Ca3 1.0000000000 0.4794640165 0.0877085015 0.2022073995  Biso 1.0 Ca
Ca4 1.0000000000 0.0221428862 0.5879817582 0.2010991550  Biso 1.0 Ca
F5 1.0000000000 0.8159055275 0.6820966652 0.8943135214  Biso 1.0 F
F6 1.0000000000 0.1160237646 0.0367751255 0.7017661599  Biso 1.0 F
F7 1.0000000000 0.8870395758 0.9607824312 0.2014595476  Biso 1.0 F
F8 1.0000000000 0.1872571548 0.3143977803 0.3933630840  Biso 1.0 F
F9 1.0000000000 0.3152662468 0.8140668936 0.0098110300  Biso 1.0 F
F10 1.0000000000 0.1881734625 0.3134397989 0.0097621626  Biso 1.0 F
F11 1.0000000000 0.6881664547 0.1818876889 0.5095894137  Biso 1.0 F
F12 1.0000000000 0.8142284507 0.6827228503 0.5096794158  Biso 1.0 F
F13 1.0000000000 0.6892909068 0.1825794751 0.8937123164  Biso 1.0 F
F14 1.0000000000 0.3876619996 0.5365500118 0.7016225395  Biso 1.0 F
F15 1.0000000000 0.6147027664 0.4603097474 0.2019092609  Biso 1.0 F
F16 1.0000000000 0.3136949676 0.8137089369 0.3931815064  Biso 1.0 F
Li17 1.0000000000 0.0024120475 0.0003992384 0.9523822476  Biso 1.0 Li
Li18 1.0000000000 0.5012380676 0.4989868870 0.9519750060  Biso 1.0 Li
Li19 1.0000000000 1.0010710837 -0.0009625604 0.4514902097  Biso 1.0 Li
Li20 1.0000000000 0.5003477186 0.4999815200 0.4512134760  Biso 1.0 Li
