# AFLOW.org Repositories
# Ca8Cl24Li8
data_Ca8Cl24Li8
_pd_phase_name Ca8Cl24Li8
_cell_length_a  10.0421102642
_cell_length_b  10.0349274915
_cell_length_c  10.0452187723
_cell_angle_alpha  83.7225665191
_cell_angle_beta  83.6574201079
_cell_angle_gamma  83.6531698927
_symmetry_space_group_name_H-M  'P1'
_symmetry_Int_Tables_Number  1
loop_
_symmetry_equiv_pos_site_id
_symmetry_equiv_pos_as_xyz
  1  x,y,z
loop_
 _atom_site_label
 _atom_site_occupancy
 _atom_site_fract_x
 _atom_site_fract_y
 _atom_site_fract_z
 _atom_site_thermal_displace_type
 _atom_site_B_iso_or_equiv
 _atom_site_type_symbol
Ca1 1.0000000000 0.7472538415 0.7481137955 0.2346007764  Biso 1.0 Ca
Ca2 1.0000000000 0.2511093605 0.7460292834 0.2416814191  Biso 1.0 Ca
Ca3 1.0000000000 0.7340701657 0.2477499314 0.2488130595  Biso 1.0 Ca
Ca4 1.0000000000 0.7440773286 0.7476037331 0.7419041229  Biso 1.0 Ca
Ca5 1.0000000000 0.2461836762 0.2625300655 0.2477404250  Biso 1.0 Ca
Ca6 1.0000000000 0.2372480532 0.7539887320 0.7419717716  Biso 1.0 Ca
Ca7 1.0000000000 0.7463454188 0.2368056407 0.7463002609  Biso 1.0 Ca
Ca8 1.0000000000 0.2449437824 0.2576314387 0.7351561307  Biso 1.0 Ca
Cl9 1.0000000000 0.9946434102 0.6847255155 0.3366321754  Biso 1.0 Cl
Cl10 1.0000000000 0.5010520470 0.8089642867 0.1314886962  Biso 1.0 Cl
Cl11 1.0000000000 0.9907386089 0.3157385573 0.1584581680  Biso 1.0 Cl
Cl12 1.0000000000 0.9916604986 0.8233310027 0.6430516432  Biso 1.0 Cl
Cl13 1.0000000000 0.4902933796 0.1565987165 0.3264015264  Biso 1.0 Cl
Cl14 1.0000000000 0.4931464064 0.6580871869 0.8106153064  Biso 1.0 Cl
Cl15 1.0000000000 0.9935612452 0.1841877848 0.8417791323  Biso 1.0 Cl
Cl16 1.0000000000 0.5013639185 0.3241860013 0.6536114950  Biso 1.0 Cl
Cl17 1.0000000000 0.8420650010 0.9960531719 0.1780126238  Biso 1.0 Cl
Cl18 1.0000000000 0.1589294050 0.0033188195 0.3060420860  Biso 1.0 Cl
Cl19 1.0000000000 0.6538815750 0.5031991983 0.3205887672  Biso 1.0 Cl
Cl20 1.0000000000 0.6478454647 0.9932403661 0.8223744611  Biso 1.0 Cl
Cl21 1.0000000000 0.3292967640 0.5046036343 0.1452854371  Biso 1.0 Cl
Cl22 1.0000000000 0.3409206569 0.0004261800 0.6770839535  Biso 1.0 Cl
Cl23 1.0000000000 0.8165017566 0.4951098892 0.6565561913  Biso 1.0 Cl
Cl24 1.0000000000 0.1338128742 0.5071629662 0.8013693848  Biso 1.0 Cl
Cl25 1.0000000000 0.8168064692 0.6482021223 0.9900483343  Biso 1.0 Cl
Cl26 1.0000000000 0.1809288306 0.8506561341 0.9889944947  Biso 1.0 Cl
Cl27 1.0000000000 0.6771084722 0.3414316588 0.9917436747  Biso 1.0 Cl
Cl28 1.0000000000 0.6544137361 0.8180048097 0.4908654815  Biso 1.0 Cl
Cl29 1.0000000000 0.3079443153 0.1690933245 0.9932607374  Biso 1.0 Cl
Cl30 1.0000000000 0.3205168567 0.6598965085 0.4968698363  Biso 1.0 Cl
Cl31 1.0000000000 0.7991749840 0.1344619716 0.4986767449  Biso 1.0 Cl
Cl32 1.0000000000 0.1470367178 0.3369353072 0.4942648704  Biso 1.0 Cl
Li33 1.0000000000 0.0638140328 0.0694742267 0.0633458671  Biso 1.0 Li
Li34 1.0000000000 0.4215193576 0.9569289729 0.9344532663  Biso 1.0 Li
Li35 1.0000000000 0.9320828605 0.4251603151 0.9434074415  Biso 1.0 Li
Li36 1.0000000000 0.9477897520 0.9377059424 0.4172526284  Biso 1.0 Li
Li37 1.0000000000 0.5440570729 0.5588147031 0.0353497015  Biso 1.0 Li
Li38 1.0000000000 0.5524849954 0.0443793420 0.5359641263  Biso 1.0 Li
Li39 1.0000000000 0.0400151188 0.5506466804 0.5544023368  Biso 1.0 Li
Li40 1.0000000000 0.5365926766 0.5413407236 0.5373152107  Biso 1.0 Li
