# AFLOW.org Repositories
# Br24Ca8Li8
data_Br24Ca8Li8
_pd_phase_name Br24Ca8Li8
_cell_length_a  10.6180756337
_cell_length_b  10.6199973245
_cell_length_c  10.6141477417
_cell_angle_alpha  83.8094787579
_cell_angle_beta  83.8347401637
_cell_angle_gamma  83.8347106767
_symmetry_space_group_name_H-M  'P1'
_symmetry_Int_Tables_Number  1
loop_
_symmetry_equiv_pos_site_id
_symmetry_equiv_pos_as_xyz
  1  x,y,z
loop_
 _atom_site_label
 _atom_site_occupancy
 _atom_site_fract_x
 _atom_site_fract_y
 _atom_site_fract_z
 _atom_site_thermal_displace_type
 _atom_site_B_iso_or_equiv
 _atom_site_type_symbol
Br1 1.0000000000 0.9960096714 0.1513913832 0.3184107390  Biso 1.0 Br
Br2 1.0000000000 0.4937372940 0.3202857216 0.1526909499  Biso 1.0 Br
Br3 1.0000000000 0.0054522971 0.3064071452 0.6406157858  Biso 1.0 Br
Br4 1.0000000000 0.0028053093 0.8210213183 0.1558162892  Biso 1.0 Br
Br5 1.0000000000 0.4994265238 0.1765233173 0.8426168417  Biso 1.0 Br
Br6 1.0000000000 0.4943344381 0.6794149703 0.3475952750  Biso 1.0 Br
Br7 1.0000000000 0.9993604580 0.6458358360 0.8337372570  Biso 1.0 Br
Br8 1.0000000000 0.4976696498 0.8119170199 0.6705422350  Biso 1.0 Br
Br9 1.0000000000 0.8231131782 0.1560960589 0.0044565022  Biso 1.0 Br
Br10 1.0000000000 0.1573277876 0.3134132280 0.9995331211  Biso 1.0 Br
Br11 1.0000000000 0.6816669591 0.3465048555 0.4956909201  Biso 1.0 Br
Br12 1.0000000000 0.6487570628 0.8315650444 0.0021699323  Biso 1.0 Br
Br13 1.0000000000 0.3241338694 0.1459362543 0.4980767993  Biso 1.0 Br
Br14 1.0000000000 0.3096045858 0.6358503161 0.0070122632  Biso 1.0 Br
Br15 1.0000000000 0.8153838388 0.6677659140 0.5006352256  Biso 1.0 Br
Br16 1.0000000000 0.1791817781 0.8374781566 0.5014655437  Biso 1.0 Br
Br17 1.0000000000 0.6388803435 0.0032246194 0.3123780721  Biso 1.0 Br
Br18 1.0000000000 0.3169232765 0.9939833644 0.1603630552  Biso 1.0 Br
Br19 1.0000000000 0.8308448194 0.9984763432 0.6518963496  Biso 1.0 Br
Br20 1.0000000000 0.8412737413 0.4978604670 0.1822420366  Biso 1.0 Br
Br21 1.0000000000 0.1532025299 0.9998613869 0.8257075651  Biso 1.0 Br
Br22 1.0000000000 0.1502968779 0.4923746920 0.3277556761  Biso 1.0 Br
Br23 1.0000000000 0.6670301937 0.4964058610 0.8166144531  Biso 1.0 Br
Br24 1.0000000000 0.3447099985 0.4914420021 0.6844436950  Biso 1.0 Br
Ca25 1.0000000000 0.7409493069 0.2508482309 0.2482981878  Biso 1.0 Ca
Ca26 1.0000000000 0.2459249947 0.2443796008 0.2517131457  Biso 1.0 Ca
Ca27 1.0000000000 0.7548059609 0.2401412941 0.7473554661  Biso 1.0 Ca
Ca28 1.0000000000 0.7463425327 0.7542483469 0.2430609002  Biso 1.0 Ca
Ca29 1.0000000000 0.2526600541 0.2421899617 0.7438166659  Biso 1.0 Ca
Ca30 1.0000000000 0.2457287196 0.7385600472 0.2535373713  Biso 1.0 Ca
Ca31 1.0000000000 0.7559404832 0.7547595929 0.7591036767  Biso 1.0 Ca
Ca32 1.0000000000 0.2403611238 0.7434846319 0.7577269566  Biso 1.0 Ca
Li33 1.0000000000 0.0490985027 0.0528679256 0.0571110145  Biso 1.0 Li
Li34 1.0000000000 0.5511761203 0.0521068813 0.0698953748  Biso 1.0 Li
Li35 1.0000000000 0.0540768012 0.0609191740 0.5613979900  Biso 1.0 Li
Li36 1.0000000000 0.0640112504 0.5498777592 0.0550430029  Biso 1.0 Li
Li37 1.0000000000 0.4318436938 0.9133365639 0.4506968176  Biso 1.0 Li
Li38 1.0000000000 0.4481595080 0.4296107252 0.9193950676  Biso 1.0 Li
Li39 1.0000000000 0.9179208354 0.4507817665 0.4359549981  Biso 1.0 Li
Li40 1.0000000000 0.5720673717 0.5721620313 0.5770854156  Biso 1.0 Li
