# AFLOW.org Repositories
# Ca8I24Li8
data_Ca8I24Li8
_pd_phase_name Ca8I24Li8
_cell_length_a  11.5698877070
_cell_length_b  11.4890143977
_cell_length_c  11.6954279072
_cell_angle_alpha  84.5896471656
_cell_angle_beta  84.5919207720
_cell_angle_gamma  86.1022290378
_symmetry_space_group_name_H-M  'P1'
_symmetry_Int_Tables_Number  1
loop_
_symmetry_equiv_pos_site_id
_symmetry_equiv_pos_as_xyz
  1  x,y,z
loop_
 _atom_site_label
 _atom_site_occupancy
 _atom_site_fract_x
 _atom_site_fract_y
 _atom_site_fract_z
 _atom_site_thermal_displace_type
 _atom_site_B_iso_or_equiv
 _atom_site_type_symbol
Ca1 1.0000000000 0.2365624763 0.2592485844 0.2456916458  Biso 1.0 Ca
Ca2 1.0000000000 0.7458385955 0.2601635733 0.2611910900  Biso 1.0 Ca
Ca3 1.0000000000 0.2499361955 0.7690423750 0.2612649831  Biso 1.0 Ca
Ca4 1.0000000000 0.2573203096 0.2577707120 0.7741273186  Biso 1.0 Ca
Ca5 1.0000000000 0.7659634437 0.7597976894 0.2392248101  Biso 1.0 Ca
Ca6 1.0000000000 0.7200529862 0.2642048733 0.7528995815  Biso 1.0 Ca
Ca7 1.0000000000 0.2404786769 0.7537855663 0.7538906139  Biso 1.0 Ca
Ca8 1.0000000000 0.7512887320 0.7622043335 0.7594322078  Biso 1.0 Ca
I9 1.0000000000 0.9898562544 0.1814981756 0.3437938962  Biso 1.0 I
I10 1.0000000000 0.4928467304 0.3571194340 0.1950820250  Biso 1.0 I
I11 1.0000000000 0.0050548421 0.8592262982 0.1863292021  Biso 1.0 I
I12 1.0000000000 0.9937868666 0.3303061303 0.7054894916  Biso 1.0 I
I13 1.0000000000 0.5038761530 0.6764338260 0.3368100926  Biso 1.0 I
I14 1.0000000000 0.4903520661 0.1696076982 0.8625948120  Biso 1.0 I
I15 1.0000000000 0.9927261423 0.6737967387 0.8418900456  Biso 1.0 I
I16 1.0000000000 0.4948448944 0.8487019985 0.6952330003  Biso 1.0 I
I17 1.0000000000 0.3445561860 0.0132578922 0.1849086449  Biso 1.0 I
I18 1.0000000000 0.6756344104 0.0027653564 0.3298992655  Biso 1.0 I
I19 1.0000000000 0.1588087361 0.5158837180 0.3200273917  Biso 1.0 I
I20 1.0000000000 0.1845940513 0.0018550654 0.8515244138  Biso 1.0 I
I21 1.0000000000 0.8153353675 0.5108016727 0.1555249367  Biso 1.0 I
I22 1.0000000000 0.8304607219 0.0178844411 0.6821318120  Biso 1.0 I
I23 1.0000000000 0.3236130106 0.5097077341 0.6608505832  Biso 1.0 I
I24 1.0000000000 0.6622934682 0.5133143072 0.8371087773  Biso 1.0 I
I25 1.0000000000 0.1608427998 0.3536157581 0.0043201150  Biso 1.0 I
I26 1.0000000000 0.8196434184 0.1982526538 0.9987228612  Biso 1.0 I
I27 1.0000000000 0.3374614698 0.6943330674 0.0090245422  Biso 1.0 I
I28 1.0000000000 0.3097751996 0.2174603404 0.5059680134  Biso 1.0 I
I29 1.0000000000 0.6600955349 0.8320317077 0.0067931547  Biso 1.0 I
I30 1.0000000000 0.6682734181 0.3501933547 0.5028289789  Biso 1.0 I
I31 1.0000000000 0.1687939472 0.8492124013 0.5074019499  Biso 1.0 I
I32 1.0000000000 0.8179279900 0.7092707461 0.5017348829  Biso 1.0 I
Li33 1.0000000000 0.9642748716 0.0845376091 0.8404050895  Biso 1.0 Li
Li34 1.0000000000 0.4268848970 0.9360544591 0.9695006979  Biso 1.0 Li
Li35 1.0000000000 0.9367833583 0.4368163986 0.9376686514  Biso 1.0 Li
Li36 1.0000000000 0.9554622657 0.9373014180 0.4117661587  Biso 1.0 Li
Li37 1.0000000000 0.5695046802 0.5784689134 0.0606543418  Biso 1.0 Li
Li38 1.0000000000 0.5900765087 0.8219391285 0.4826183517  Biso 1.0 Li
Li39 1.0000000000 0.1574284045 0.4221785021 0.5358344543  Biso 1.0 Li
Li40 1.0000000000 0.4492025121 0.4225640693 0.4333944829  Biso 1.0 Li
