# AFLOW.org Repositories
# Cl24Ge8Li8
data_Cl24Ge8Li8
_pd_phase_name Cl24Ge8Li8
_cell_length_a  11.3442948100
_cell_length_b  10.8248889786
_cell_length_c  10.7326695380
_cell_angle_alpha  89.0007224572
_cell_angle_beta  85.4237141642
_cell_angle_gamma  88.8564903670
_symmetry_space_group_name_H-M  'P1'
_symmetry_Int_Tables_Number  1
loop_
_symmetry_equiv_pos_site_id
_symmetry_equiv_pos_as_xyz
  1  x,y,z
loop_
 _atom_site_label
 _atom_site_occupancy
 _atom_site_fract_x
 _atom_site_fract_y
 _atom_site_fract_z
 _atom_site_thermal_displace_type
 _atom_site_B_iso_or_equiv
 _atom_site_type_symbol
Cl1 1.0000000000 0.7283712856 0.0427138061 0.2679368199  Biso 1.0 Cl
Cl2 1.0000000000 0.4601937350 0.5428688009 0.2508081333  Biso 1.0 Cl
Cl3 1.0000000000 0.8851884446 0.9875074340 0.8300073517  Biso 1.0 Cl
Cl4 1.0000000000 0.3363090905 0.9356144045 0.1630925755  Biso 1.0 Cl
Cl5 1.0000000000 0.6779807634 0.4991158873 0.7267859834  Biso 1.0 Cl
Cl6 1.0000000000 0.1974365905 0.3547094046 0.4356407616  Biso 1.0 Cl
Cl7 1.0000000000 0.2288613067 0.0773758572 0.8272692304  Biso 1.0 Cl
Cl8 1.0000000000 0.3698585283 0.5753983071 0.6146607486  Biso 1.0 Cl
Cl9 1.0000000000 0.6320964520 0.7759067264 0.1052132640  Biso 1.0 Cl
Cl10 1.0000000000 0.7525475681 0.3588435716 0.0101109142  Biso 1.0 Cl
Cl11 1.0000000000 0.8641245064 0.8222489996 0.5412714760  Biso 1.0 Cl
Cl12 1.0000000000 0.3946339452 0.7324294695 0.8736070822  Biso 1.0 Cl
Cl13 1.0000000000 0.7673404235 0.1855210245 0.5382214974  Biso 1.0 Cl
Cl14 1.0000000000 0.1401167840 0.3464734548 0.9900986056  Biso 1.0 Cl
Cl15 1.0000000000 0.1739899608 0.7117291269 0.3629876127  Biso 1.0 Cl
Cl16 1.0000000000 0.1194335797 0.0588852411 0.4662698881  Biso 1.0 Cl
Cl17 1.0000000000 0.0655865222 0.8360033290 0.0811300941  Biso 1.0 Cl
Cl18 1.0000000000 0.9278689488 0.2907162851 0.2846817361  Biso 1.0 Cl
Cl19 1.0000000000 0.1354398976 0.7760817886 0.7115559692  Biso 1.0 Cl
Cl20 1.0000000000 0.5557602547 0.8001185761 0.4175609696  Biso 1.0 Cl
Cl21 1.0000000000 0.0024687987 0.2940184894 0.7269183483  Biso 1.0 Cl
Cl22 1.0000000000 0.4286902618 0.1282238425 0.3957701349  Biso 1.0 Cl
Cl23 1.0000000000 0.6189857768 0.9353576710 0.7101145600  Biso 1.0 Cl
Cl24 1.0000000000 0.4633633696 0.3523685492 0.9127336203  Biso 1.0 Cl
Ge25 1.0000000000 0.6403522002 0.6439953336 0.2764286851  Biso 1.0 Ge
Ge26 1.0000000000 0.7268388938 0.2533811185 0.3319145621  Biso 1.0 Ge
Ge27 1.0000000000 0.7831084821 0.8171994831 0.7619148142  Biso 1.0 Ge
Ge28 1.0000000000 0.2430099035 0.7450338539 0.1379307330  Biso 1.0 Ge
Ge29 1.0000000000 0.6580053038 0.3030210055 0.8267042923  Biso 1.0 Ge
Ge30 1.0000000000 0.2495268021 0.1709591525 0.3114986578  Biso 1.0 Ge
Ge31 1.0000000000 0.3493087115 0.7903250633 0.6709203325  Biso 1.0 Ge
Ge32 1.0000000000 0.2087767408 0.2902844363 0.7841952190  Biso 1.0 Ge
Li33 1.0000000000 0.0793364021 0.9269636249 0.8757178054  Biso 1.0 Li
Li34 1.0000000000 0.9472808666 0.3258780083 0.9431970600  Biso 1.0 Li
Li35 1.0000000000 0.0722606031 0.8471721656 0.5092467358  Biso 1.0 Li
Li36 1.0000000000 0.5301333196 0.9421970721 0.2450236932  Biso 1.0 Li
Li37 1.0000000000 0.9888573878 0.2398913337 0.4987216020  Biso 1.0 Li
Li38 1.0000000000 0.4790482939 0.5402335490 0.8000016407  Biso 1.0 Li
Li39 1.0000000000 0.7072725929 0.9650996717 0.4922283483  Biso 1.0 Li
Li40 1.0000000000 0.3035836422 0.5424761385 0.4109428336  Biso 1.0 Li
