# AFLOW.org Repositories
# Br24Ge8Li8
data_Br24Ge8Li8
_pd_phase_name Br24Ge8Li8
_cell_length_a  11.4509988427
_cell_length_b  11.2879728114
_cell_length_c  11.9036988705
_cell_angle_alpha  89.4221129929
_cell_angle_beta  75.1281996922
_cell_angle_gamma  94.8531975969
_symmetry_space_group_name_H-M  'P1'
_symmetry_Int_Tables_Number  1
loop_
_symmetry_equiv_pos_site_id
_symmetry_equiv_pos_as_xyz
  1  x,y,z
loop_
 _atom_site_label
 _atom_site_occupancy
 _atom_site_fract_x
 _atom_site_fract_y
 _atom_site_fract_z
 _atom_site_thermal_displace_type
 _atom_site_B_iso_or_equiv
 _atom_site_type_symbol
Br1 1.0000000000 0.1149676257 0.0215192801 0.8876451732  Biso 1.0 Br
Br2 1.0000000000 0.3496574220 0.3395305569 0.4341756330  Biso 1.0 Br
Br3 1.0000000000 0.8667069371 0.2773933474 0.9230132685  Biso 1.0 Br
Br4 1.0000000000 0.1653008340 0.7096925833 0.0164316354  Biso 1.0 Br
Br5 1.0000000000 0.7073412339 0.2269703007 0.4633616984  Biso 1.0 Br
Br6 1.0000000000 0.1721340877 0.7370021729 0.4937541954  Biso 1.0 Br
Br7 1.0000000000 0.7364514728 0.6483759033 0.0642266899  Biso 1.0 Br
Br8 1.0000000000 0.7608580652 0.8229561746 0.5347513319  Biso 1.0 Br
Br9 1.0000000000 0.0532545294 0.3082358949 0.1455712951  Biso 1.0 Br
Br10 1.0000000000 0.0154120565 0.0975128510 0.6177603908  Biso 1.0 Br
Br11 1.0000000000 0.5312533358 0.2202454123 0.1440690880  Biso 1.0 Br
Br12 1.0000000000 0.9450828628 0.6286516261 0.3270746301  Biso 1.0 Br
Br13 1.0000000000 0.4850294754 0.2882397046 0.7354498624  Biso 1.0 Br
Br14 1.0000000000 0.9385984950 0.7473250537 0.7700790512  Biso 1.0 Br
Br15 1.0000000000 0.4530863787 0.8333437041 0.2379699095  Biso 1.0 Br
Br16 1.0000000000 0.4556771361 0.7112588746 0.7763148587  Biso 1.0 Br
Br17 1.0000000000 0.1562201940 0.9802455560 0.2851035444  Biso 1.0 Br
Br18 1.0000000000 0.3359199442 0.0239522946 0.5910581390  Biso 1.0 Br
Br19 1.0000000000 0.8069153373 0.0552801174 0.1697481910  Biso 1.0 Br
Br20 1.0000000000 0.3556278370 0.4914283078 0.1479263618  Biso 1.0 Br
Br21 1.0000000000 0.6939979069 0.9484990284 0.9090794925  Biso 1.0 Br
Br22 1.0000000000 0.1960446706 0.4688745389 0.8098170475  Biso 1.0 Br
Br23 1.0000000000 0.6033253156 0.5910396785 0.3891228684  Biso 1.0 Br
Br24 1.0000000000 0.7571682848 0.5047215163 0.6501484440  Biso 1.0 Br
Ge25 1.0000000000 0.3199043722 0.2761388475 0.2400924119  Biso 1.0 Ge
Ge26 1.0000000000 0.1820221546 0.1615662746 0.7146217146  Biso 1.0 Ge
Ge27 1.0000000000 0.8317827956 0.2857858066 0.1402241260  Biso 1.0 Ge
Ge28 1.0000000000 0.2160313535 0.7715523841 0.2693197815  Biso 1.0 Ge
Ge29 1.0000000000 0.7084227229 0.2741967585 0.6694809757  Biso 1.0 Ge
Ge30 1.0000000000 0.2267395123 0.6923565462 0.7963985854  Biso 1.0 Ge
Ge31 1.0000000000 0.7779029306 0.7576852168 0.3254107774  Biso 1.0 Ge
Ge32 1.0000000000 0.7165146006 0.7227130508 0.8670620393  Biso 1.0 Ge
Li33 1.0000000000 0.8918773258 0.0554659017 0.9409389485  Biso 1.0 Li
Li34 1.0000000000 0.1632841361 0.9659134590 0.4978927076  Biso 1.0 Li
Li35 1.0000000000 0.5961001440 0.0066349461 0.1208012097  Biso 1.0 Li
Li36 1.0000000000 0.1779549806 0.4863791861 0.0266796472  Biso 1.0 Li
Li37 1.0000000000 0.4790962804 0.2160625800 0.5306746041  Biso 1.0 Li
Li38 1.0000000000 0.9315023458 0.6814839725 0.5560100904  Biso 1.0 Li
Li39 1.0000000000 0.5266590405 0.6261298004 0.2029240582  Biso 1.0 Li
Li40 1.0000000000 0.5999436940 0.6362202489 0.6008914019  Biso 1.0 Li
