# AFLOW.org Repositories
# F24Ge8Li8
data_F24Ge8Li8
_pd_phase_name F24Ge8Li8
_cell_length_a  9.0991824351
_cell_length_b  9.7064758576
_cell_length_c  8.1931157731
_cell_angle_alpha  86.9746415812
_cell_angle_beta  84.9333576737
_cell_angle_gamma  87.8294842773
_symmetry_space_group_name_H-M  'P1'
_symmetry_Int_Tables_Number  1
loop_
_symmetry_equiv_pos_site_id
_symmetry_equiv_pos_as_xyz
  1  x,y,z
loop_
 _atom_site_label
 _atom_site_occupancy
 _atom_site_fract_x
 _atom_site_fract_y
 _atom_site_fract_z
 _atom_site_thermal_displace_type
 _atom_site_B_iso_or_equiv
 _atom_site_type_symbol
F1 1.0000000000 0.7239969518 0.8230659914 0.1173427859  Biso 1.0 F
F2 1.0000000000 0.6772730458 0.4053287884 0.3759393646  Biso 1.0 F
F3 1.0000000000 0.7019369927 0.0529849047 0.8991727144  Biso 1.0 F
F4 1.0000000000 0.2129330696 0.0985371067 0.2990973626  Biso 1.0 F
F5 1.0000000000 0.9302677263 0.5283347872 0.6680551050  Biso 1.0 F
F6 1.0000000000 0.4743169186 0.6428583397 0.2500607222  Biso 1.0 F
F7 1.0000000000 0.0292135277 0.0401721927 0.6576254140  Biso 1.0 F
F8 1.0000000000 0.3947946560 0.5994343074 0.9229643002  Biso 1.0 F
F9 1.0000000000 0.7079668743 0.5976104421 0.8668998625  Biso 1.0 F
F10 1.0000000000 0.8649116948 0.3900280360 0.1003912884  Biso 1.0 F
F11 1.0000000000 0.9143734017 0.9590755392 0.2967612106  Biso 1.0 F
F12 1.0000000000 0.4309651721 0.8600052913 0.0598261071  Biso 1.0 F
F13 1.0000000000 0.6502520941 0.0979041546 0.5903022305  Biso 1.0 F
F14 1.0000000000 0.4742636361 0.1552407061 0.1239637134  Biso 1.0 F
F15 1.0000000000 0.4270066253 0.5392575970 0.6039989751  Biso 1.0 F
F16 1.0000000000 0.1303333745 0.2890617578 0.6889971902  Biso 1.0 F
F17 1.0000000000 0.9881706305 0.8916442055 0.9827162841  Biso 1.0 F
F18 1.0000000000 0.9356586254 0.2575421620 0.3958802612  Biso 1.0 F
F19 1.0000000000 0.8430559453 0.8029850453 0.6824004234  Biso 1.0 F
F20 1.0000000000 0.4917746867 0.9070068068 0.3532539818  Biso 1.0 F
F21 1.0000000000 0.7976659708 0.2925976611 0.7562336604  Biso 1.0 F
F22 1.0000000000 0.3563735583 0.3429686897 0.3332313543  Biso 1.0 F
F23 1.0000000000 0.4861554678 0.7948838538 0.6936309917  Biso 1.0 F
F24 1.0000000000 0.3308373037 0.0711970024 0.6460838472  Biso 1.0 F
Ge25 1.0000000000 0.9198169832 0.7973840504 0.1785050009  Biso 1.0 Ge
Ge26 1.0000000000 0.7715341610 0.2627457186 0.2571227921  Biso 1.0 Ge
Ge27 1.0000000000 0.7540242501 0.6446611621 0.6322146459  Biso 1.0 Ge
Ge28 1.0000000000 0.3458402174 0.8039156575 0.2701989390  Biso 1.0 Ge
Ge29 1.0000000000 0.6101774616 0.2019067975 0.7767063250  Biso 1.0 Ge
Ge30 1.0000000000 0.2883032807 0.2486840051 0.1635905929  Biso 1.0 Ge
Ge31 1.0000000000 0.3226663886 0.6723368277 0.7305169084  Biso 1.0 Ge
Ge32 1.0000000000 0.1698079894 0.1171864821 0.7925870227  Biso 1.0 Ge
Li33 1.0000000000 0.8766304416 0.9483963325 0.8051623540  Biso 1.0 Li
Li34 1.0000000000 0.8487143878 0.4468098037 0.8856724460  Biso 1.0 Li
Li35 1.0000000000 0.0294175873 0.0706077909 0.4191039059  Biso 1.0 Li
Li36 1.0000000000 0.5867901285 0.9843167776 0.1080018544  Biso 1.0 Li
Li37 1.0000000000 0.9603142740 0.3462197907 0.5909162740  Biso 1.0 Li
Li38 1.0000000000 0.5569529785 0.6817235990 0.0142416932  Biso 1.0 Li
Li39 1.0000000000 0.4982714729 0.9671916193 0.5670436738  Biso 1.0 Li
Li40 1.0000000000 0.4792684647 0.4767931500 0.3943044344  Biso 1.0 Li
