# AFLOW.org Repositories
# Cl6Li2Mg2
data_Cl6Li2Mg2
_pd_phase_name Cl6Li2Mg2
_cell_length_a  6.3670855134
_cell_length_b  6.3691459636
_cell_length_c  6.8810700164
_cell_angle_alpha  62.4204257068
_cell_angle_beta  62.4025173156
_cell_angle_gamma  59.9686014983
_symmetry_space_group_name_H-M  'P1'
_symmetry_Int_Tables_Number  1
loop_
_symmetry_equiv_pos_site_id
_symmetry_equiv_pos_as_xyz
  1  x,y,z
loop_
 _atom_site_label
 _atom_site_occupancy
 _atom_site_fract_x
 _atom_site_fract_y
 _atom_site_fract_z
 _atom_site_thermal_displace_type
 _atom_site_B_iso_or_equiv
 _atom_site_type_symbol
Cl1 1.0000000000 0.9730634928 0.3484252128 0.0345418565  Biso 1.0 Cl
Cl2 1.0000000000 0.4737245379 0.1452988308 0.5342930764  Biso 1.0 Cl
Cl3 1.0000000000 0.8485213016 0.4738780113 0.5338592171  Biso 1.0 Cl
Cl4 1.0000000000 0.6468826950 0.9753641325 0.0325490408  Biso 1.0 Cl
Cl5 1.0000000000 0.3483471580 0.6459437434 0.0341389642  Biso 1.0 Cl
Cl6 1.0000000000 0.1468355605 0.8478563513 0.5326098875  Biso 1.0 Cl
Li7 1.0000000000 0.0543868742 0.0554097875 0.8384776966  Biso 1.0 Li
Li8 1.0000000000 0.5547968758 0.5527375790 0.3377099815  Biso 1.0 Li
Mg9 1.0000000000 0.7494434140 0.7484942204 0.7557585436  Biso 1.0 Mg
Mg10 1.0000000000 0.2495214550 0.2482528515 0.2560442467  Biso 1.0 Mg
