# AFLOW.org Repositories
# Br24Li8Mg8
data_Br24Li8Mg8
_pd_phase_name Br24Li8Mg8
_cell_length_a  10.0078945095
_cell_length_b  10.0059731940
_cell_length_c  10.0038432025
_cell_angle_alpha  85.6445320649
_cell_angle_beta  85.6387123262
_cell_angle_gamma  85.6030468074
_symmetry_space_group_name_H-M  'P1'
_symmetry_Int_Tables_Number  1
loop_
_symmetry_equiv_pos_site_id
_symmetry_equiv_pos_as_xyz
  1  x,y,z
loop_
 _atom_site_label
 _atom_site_occupancy
 _atom_site_fract_x
 _atom_site_fract_y
 _atom_site_fract_z
 _atom_site_thermal_displace_type
 _atom_site_B_iso_or_equiv
 _atom_site_type_symbol
Br1 1.0000000000 0.0043665115 0.3485694455 0.1937265537  Biso 1.0 Br
Br2 1.0000000000 0.5042369994 0.1985528588 0.3458018454  Biso 1.0 Br
Br3 1.0000000000 0.0048344201 0.1988362615 0.8439972601  Biso 1.0 Br
Br4 1.0000000000 0.0040544360 0.6979811707 0.3442775465  Biso 1.0 Br
Br5 1.0000000000 0.5046876211 0.3517542129 0.6942575495  Biso 1.0 Br
Br6 1.0000000000 0.5032399240 0.8500322108 0.1932886760  Biso 1.0 Br
Br7 1.0000000000 0.0037765597 0.8493859740 0.6928743909  Biso 1.0 Br
Br8 1.0000000000 0.5036962147 0.7001930465 0.8453004864  Biso 1.0 Br
Br9 1.0000000000 0.6903703916 0.3496103845 0.0081081433  Biso 1.0 Br
Br10 1.0000000000 0.3417974101 0.1994928168 0.0084598412  Biso 1.0 Br
Br11 1.0000000000 0.8418142515 0.1976957389 0.5079020626  Biso 1.0 Br
Br12 1.0000000000 0.8408955215 0.6984567041 0.0071875597  Biso 1.0 Br
Br13 1.0000000000 0.1907832400 0.3502671332 0.5078509915  Biso 1.0 Br
Br14 1.0000000000 0.1886733660 0.8510669006 0.0085102866  Biso 1.0 Br
Br15 1.0000000000 0.6898362871 0.8496070202 0.5071289543  Biso 1.0 Br
Br16 1.0000000000 0.3408017684 0.6993487968 0.5087875380  Biso 1.0 Br
Br17 1.0000000000 0.8406600466 0.0125517149 0.1928660062  Biso 1.0 Br
Br18 1.0000000000 0.1899453315 0.0128002689 0.3454684872  Biso 1.0 Br
Br19 1.0000000000 0.6892738580 0.0137400411 0.8439187764  Biso 1.0 Br
Br20 1.0000000000 0.6900128806 0.5128032972 0.3448299785  Biso 1.0 Br
Br21 1.0000000000 0.3403719515 0.0135518520 0.6941596579  Biso 1.0 Br
Br22 1.0000000000 0.3412354400 0.5136705135 0.1943011830  Biso 1.0 Br
Br23 1.0000000000 0.8413976438 0.5131744253 0.6930617779  Biso 1.0 Br
Br24 1.0000000000 0.1897643172 0.5135572243 0.8460596230  Biso 1.0 Br
Li25 1.0000000000 0.9417434318 0.9518688373 0.9454906047  Biso 1.0 Li
Li26 1.0000000000 0.4400345530 0.9527906431 0.9465376059  Biso 1.0 Li
Li27 1.0000000000 0.9428890361 0.9492738782 0.4439964668  Biso 1.0 Li
Li28 1.0000000000 0.9426446345 0.4508869167 0.9450709663  Biso 1.0 Li
Li29 1.0000000000 0.4438414933 0.9512645951 0.4470405929  Biso 1.0 Li
Li30 1.0000000000 0.4447440739 0.4528814608 0.9472052479  Biso 1.0 Li
Li31 1.0000000000 0.9433291865 0.4500093689 0.4469840781  Biso 1.0 Li
Li32 1.0000000000 0.4417085632 0.4526423281 0.4470885042  Biso 1.0 Li
Mg33 1.0000000000 0.7528372908 0.2606458396 0.2570636454  Biso 1.0 Mg
Mg34 1.0000000000 0.2531076470 0.2607819263 0.2565039365  Biso 1.0 Mg
Mg35 1.0000000000 0.7532133468 0.2614547992 0.7555618895  Biso 1.0 Mg
Mg36 1.0000000000 0.7519463268 0.7608645286 0.2550927694  Biso 1.0 Mg
Mg37 1.0000000000 0.2537534421 0.2630462376 0.7567118195  Biso 1.0 Mg
Mg38 1.0000000000 0.2516168485 0.7620327388 0.2568842120  Biso 1.0 Mg
Mg39 1.0000000000 0.7523024602 0.7625598781 0.7556602745  Biso 1.0 Mg
Mg40 1.0000000000 0.2515008317 0.7617333677 0.7569949389  Biso 1.0 Mg
