# AFLOW.org Repositories
# F24Li8Sr8
data_F24Li8Sr8
_pd_phase_name F24Li8Sr8
_cell_length_a  8.6833083970
_cell_length_b  8.3093294871
_cell_length_c  8.6291591060
_cell_angle_alpha  75.4003905128
_cell_angle_beta  77.8306624564
_cell_angle_gamma  75.4429916393
_symmetry_space_group_name_H-M  'P1'
_symmetry_Int_Tables_Number  1
loop_
_symmetry_equiv_pos_site_id
_symmetry_equiv_pos_as_xyz
  1  x,y,z
loop_
 _atom_site_label
 _atom_site_occupancy
 _atom_site_fract_x
 _atom_site_fract_y
 _atom_site_fract_z
 _atom_site_thermal_displace_type
 _atom_site_B_iso_or_equiv
 _atom_site_type_symbol
F1 1.0000000000 0.6630884827 0.9444134909 0.4365935669  Biso 1.0 F
F2 1.0000000000 0.6808680712 0.3818411524 0.4065774192  Biso 1.0 F
F3 1.0000000000 0.8807874230 0.0434221864 0.7034933822  Biso 1.0 F
F4 1.0000000000 0.3891502446 0.0472943130 0.1827168493  Biso 1.0 F
F5 1.0000000000 0.6532572415 0.3261432647 0.9982926201  Biso 1.0 F
F6 1.0000000000 0.3971863615 0.5253351794 0.1936660114  Biso 1.0 F
F7 1.0000000000 0.2496704415 0.9661520054 0.5852254112  Biso 1.0 F
F8 1.0000000000 0.4327825146 0.4024874798 0.6472725716  Biso 1.0 F
F9 1.0000000000 0.6212354195 0.7400152797 0.0315861756  Biso 1.0 F
F10 1.0000000000 0.7869028606 0.9551597932 0.0803249907  Biso 1.0 F
F11 1.0000000000 0.8055473106 0.5979788479 0.5573595680  Biso 1.0 F
F12 1.0000000000 0.1700741464 0.9376958423 0.9392220022  Biso 1.0 F
F13 1.0000000000 0.0460869089 0.2987069698 0.4807122839  Biso 1.0 F
F14 1.0000000000 0.2208969945 0.4028585927 0.9245794527  Biso 1.0 F
F15 1.0000000000 0.0288392734 0.0316375697 0.3294818226  Biso 1.0 F
F16 1.0000000000 0.1662363727 0.6162632812 0.5017627499  Biso 1.0 F
F17 1.0000000000 0.0486182344 0.6446728631 0.2095775586  Biso 1.0 F
F18 1.0000000000 0.9193433119 0.4033205472 0.1384678708  Biso 1.0 F
F19 1.0000000000 0.9785790421 0.7079485662 0.8359933083  Biso 1.0 F
F20 1.0000000000 0.4595512902 0.7324582404 0.4024025062  Biso 1.0 F
F21 1.0000000000 0.9848137242 0.3588944468 0.7769126582  Biso 1.0 F
F22 1.0000000000 0.3955248608 0.2282037075 0.4270220436  Biso 1.0 F
F23 1.0000000000 0.5309010220 0.6346713721 0.7957381012  Biso 1.0 F
F24 1.0000000000 0.5386744562 0.0639226214 0.8137504246  Biso 1.0 F
Li25 1.0000000000 0.9659433893 0.9101343416 0.9158286292  Biso 1.0 Li
Li26 1.0000000000 0.9973317167 0.4742078130 0.9274181424  Biso 1.0 Li
Li27 1.0000000000 0.0450502103 0.0717938585 0.5270304940  Biso 1.0 Li
Li28 1.0000000000 0.5711230083 0.9832796092 0.0299611868  Biso 1.0 Li
Li29 1.0000000000 0.0138634752 0.4907160078 0.5599587997  Biso 1.0 Li
Li30 1.0000000000 0.5521915774 0.5481936477 0.0130496825  Biso 1.0 Li
Li31 1.0000000000 0.4391378360 0.9838671531 0.4093174334  Biso 1.0 Li
Li32 1.0000000000 0.4526275364 0.4397763761 0.4198285202  Biso 1.0 Li
Sr33 1.0000000000 0.7597705220 0.6621402337 0.2747884979  Biso 1.0 Sr
Sr34 1.0000000000 0.7716506629 0.1734567649 0.2362772646  Biso 1.0 Sr
Sr35 1.0000000000 0.7246522401 0.8225422050 0.7141217976  Biso 1.0 Sr
Sr36 1.0000000000 0.2372405879 0.8065315058 0.2292632385  Biso 1.0 Sr
Sr37 1.0000000000 0.7080518460 0.3310826434 0.7094762266  Biso 1.0 Sr
Sr38 1.0000000000 0.2072820084 0.3403675100 0.2168766322  Biso 1.0 Sr
Sr39 1.0000000000 0.2772269979 0.6668358140 0.7115633812  Biso 1.0 Sr
Sr40 1.0000000000 0.2686445009 0.1844633112 0.7334004279  Biso 1.0 Sr
