# AFLOW.org Repositories
# Be8F24Na8
data_Be8F24Na8
_pd_phase_name Be8F24Na8
_cell_length_a  7.5242908350
_cell_length_b  9.8445607884
_cell_length_c  7.6399054659
_cell_angle_alpha  90.3694694660
_cell_angle_beta  77.8028068863
_cell_angle_gamma  102.6294821855
_symmetry_space_group_name_H-M  'P1'
_symmetry_Int_Tables_Number  1
loop_
_symmetry_equiv_pos_site_id
_symmetry_equiv_pos_as_xyz
  1  x,y,z
loop_
 _atom_site_label
 _atom_site_occupancy
 _atom_site_fract_x
 _atom_site_fract_y
 _atom_site_fract_z
 _atom_site_thermal_displace_type
 _atom_site_B_iso_or_equiv
 _atom_site_type_symbol
Be1 1.0000000000 0.1881042136 0.2040343371 0.2663031603  Biso 1.0 Be
Be2 1.0000000000 0.2207014673 0.2965515875 0.6284388081  Biso 1.0 Be
Be3 1.0000000000 0.8038710393 0.2469907527 0.2254855685  Biso 1.0 Be
Be4 1.0000000000 0.2766043287 0.7676746946 0.2308829347  Biso 1.0 Be
Be5 1.0000000000 0.6244486534 0.2673686041 0.6096390553  Biso 1.0 Be
Be6 1.0000000000 0.2654177601 0.7962212667 0.8396285651  Biso 1.0 Be
Be7 1.0000000000 0.8440793506 0.7635010072 0.3082750708  Biso 1.0 Be
Be8 1.0000000000 0.8671521908 0.7303425957 0.9077826459  Biso 1.0 Be
F9 1.0000000000 0.0981790248 0.2381397709 0.8072765009  Biso 1.0 F
F10 1.0000000000 0.1890896276 0.1845400766 0.4770070497  Biso 1.0 F
F11 1.0000000000 0.7586684722 0.1311797296 0.1007394977  Biso 1.0 F
F12 1.0000000000 0.3143229702 0.8305953742 0.0319494368  Biso 1.0 F
F13 1.0000000000 0.6607563549 0.2072833648 0.4134897271  Biso 1.0 F
F14 1.0000000000 0.3647762315 0.8790237049 0.3448705689  Biso 1.0 F
F15 1.0000000000 0.8446176717 0.7918162398 0.1035572478  Biso 1.0 F
F16 1.0000000000 0.8707639720 0.8479055342 0.7808225824  Biso 1.0 F
F17 1.0000000000 0.0105827370 0.2675859325 0.2671982225  Biso 1.0 F
F18 1.0000000000 0.7768841929 0.3970231507 0.6207995907  Biso 1.0 F
F19 1.0000000000 0.3700353606 0.2963257751 0.1694463596  Biso 1.0 F
F20 1.0000000000 0.0496391353 0.7386291592 0.3152751890  Biso 1.0 F
F21 1.0000000000 0.4378743047 0.3261443617 0.6339765206  Biso 1.0 F
F22 1.0000000000 0.0675218032 0.6865128439 0.8709853051  Biso 1.0 F
F23 1.0000000000 0.7088865201 0.6268380938 0.3803652900  Biso 1.0 F
F24 1.0000000000 0.4178928035 0.7398837980 0.7224823708  Biso 1.0 F
F25 1.0000000000 0.1605174921 0.0615794209 0.1856340466  Biso 1.0 F
F26 1.0000000000 0.2483802825 0.9350027622 0.7607511415  Biso 1.0 F
F27 1.0000000000 0.8161894823 0.8887812753 0.4157705243  Biso 1.0 F
F28 1.0000000000 0.3172414705 0.6238010287 0.2302958205  Biso 1.0 F
F29 1.0000000000 0.6010596167 0.1468958950 0.7405481973  Biso 1.0 F
F30 1.0000000000 0.1818077067 0.4357648070 0.5811558232  Biso 1.0 F
F31 1.0000000000 0.8070836645 0.3927823731 0.1539841490  Biso 1.0 F
F32 1.0000000000 0.7218139471 0.5958717389 0.9041782732  Biso 1.0 F
Na33 1.0000000000 0.9929370079 0.0307979851 0.9607023809  Biso 1.0 Na
Na34 1.0000000000 0.0902573628 0.9391914583 0.5208827095  Biso 1.0 Na
Na35 1.0000000000 0.4699176296 0.0800605411 0.0337763973  Biso 1.0 Na
Na36 1.0000000000 0.9388467121 0.4263646882 0.8474825087  Biso 1.0 Na
Na37 1.0000000000 0.5528732041 0.9507527854 0.5469303569  Biso 1.0 Na
Na38 1.0000000000 0.0226582477 0.4945185482 0.3777427097  Biso 1.0 Na
Na39 1.0000000000 0.5501902117 0.5055114935 0.1850494937  Biso 1.0 Na
Na40 1.0000000000 0.5676461563 0.5693834365 0.6687366815  Biso 1.0 Na
