# AFLOW.org Repositories
# Be8Cl24Na8
data_Be8Cl24Na8
_pd_phase_name Be8Cl24Na8
_cell_length_a  8.8398710619
_cell_length_b  10.8838547245
_cell_length_c  12.1552761083
_cell_angle_alpha  68.2544839074
_cell_angle_beta  84.9287637420
_cell_angle_gamma  85.7713467422
_symmetry_space_group_name_H-M  'P1'
_symmetry_Int_Tables_Number  1
loop_
_symmetry_equiv_pos_site_id
_symmetry_equiv_pos_as_xyz
  1  x,y,z
loop_
 _atom_site_label
 _atom_site_occupancy
 _atom_site_fract_x
 _atom_site_fract_y
 _atom_site_fract_z
 _atom_site_thermal_displace_type
 _atom_site_B_iso_or_equiv
 _atom_site_type_symbol
Be1 1.0000000000 0.8602116454 0.7918077022 0.2930923517  Biso 1.0 Be
Be2 1.0000000000 0.6983189253 0.2424098044 0.3263550879  Biso 1.0 Be
Be3 1.0000000000 0.7535163431 0.7273020770 0.8283969271  Biso 1.0 Be
Be4 1.0000000000 0.2982038310 0.8384749779 0.2735482567  Biso 1.0 Be
Be5 1.0000000000 0.8961858059 0.2934207808 0.7712707861  Biso 1.0 Be
Be6 1.0000000000 0.4049936974 0.3248141578 0.2969344100  Biso 1.0 Be
Be7 1.0000000000 0.0416093803 0.8052956802 0.7770754540  Biso 1.0 Be
Be8 1.0000000000 0.2858088709 0.2631467298 0.8063778438  Biso 1.0 Be
Cl9 1.0000000000 0.7995549487 0.9275848418 0.1471495127  Biso 1.0 Cl
Cl10 1.0000000000 0.5871762857 0.4145873106 0.3276609218  Biso 1.0 Cl
Cl11 1.0000000000 0.8391983430 0.9106243289 0.7878540537  Biso 1.0 Cl
Cl12 1.0000000000 0.1445186231 0.9711295589 0.2845890428  Biso 1.0 Cl
Cl13 1.0000000000 0.8343422153 0.4121963699 0.6195568481  Biso 1.0 Cl
Cl14 1.0000000000 0.2889042929 0.4470176608 0.1643704442  Biso 1.0 Cl
Cl15 1.0000000000 0.1736850701 0.8925247644 0.6315653094  Biso 1.0 Cl
Cl16 1.0000000000 0.2985628826 0.4465974821 0.6856793969  Biso 1.0 Cl
Cl17 1.0000000000 0.7222893047 0.6293818533 0.0031765100  Biso 1.0 Cl
Cl18 1.0000000000 0.7835298278 0.2795273663 0.9177267610  Biso 1.0 Cl
Cl19 1.0000000000 0.7847027848 0.7828733127 0.4494860386  Biso 1.0 Cl
Cl20 1.0000000000 0.1389352093 0.7518739017 0.9301193061  Biso 1.0 Cl
Cl21 1.0000000000 0.7259560728 0.1146620753 0.4906633977  Biso 1.0 Cl
Cl22 1.0000000000 0.2617857926 0.2594945217 0.9729552795  Biso 1.0 Cl
Cl23 1.0000000000 0.3554672877 0.6999296233 0.4174696301  Biso 1.0 Cl
Cl24 1.0000000000 0.2810602479 0.2363192942 0.4478246878  Biso 1.0 Cl
Cl25 1.0000000000 0.0041421677 0.6494064783 0.2896980539  Biso 1.0 Cl
Cl26 1.0000000000 0.8996029867 0.2754215410 0.2301864443  Biso 1.0 Cl
Cl27 1.0000000000 0.9420763898 0.6404607098 0.7644014976  Biso 1.0 Cl
Cl28 1.0000000000 0.3955237046 0.8575263841 0.1205820258  Biso 1.0 Cl
Cl29 1.0000000000 0.0806598838 0.1793400426 0.7780927128  Biso 1.0 Cl
Cl30 1.0000000000 0.5349020134 0.1801068595 0.2466856399  Biso 1.0 Cl
Cl31 1.0000000000 0.5592617156 0.7409610998 0.7491548783  Biso 1.0 Cl
Cl32 1.0000000000 0.4555577925 0.1362224284 0.7911766668  Biso 1.0 Cl
Na33 1.0000000000 0.0021780553 0.1312763223 0.0791269647  Biso 1.0 Na
Na34 1.0000000000 0.9901107560 0.5441492860 0.1127656909  Biso 1.0 Na
Na35 1.0000000000 0.0351231892 0.0954871348 0.4476472923  Biso 1.0 Na
Na36 1.0000000000 0.5328968493 0.1049535639 0.0231686017  Biso 1.0 Na
Na37 1.0000000000 0.0673831485 0.6049868105 0.5352765482  Biso 1.0 Na
Na38 1.0000000000 0.4208610560 0.6648783461 0.0014289230  Biso 1.0 Na
Na39 1.0000000000 0.4481846242 0.0272720028 0.6186942105  Biso 1.0 Na
Na40 1.0000000000 0.5680529438 0.5883248260 0.6015058517  Biso 1.0 Na
