# AFLOW.org Repositories
# Ca8I24Na8
data_Ca8I24Na8
_pd_phase_name Ca8I24Na8
_cell_length_a  11.7748894783
_cell_length_b  11.7748894783
_cell_length_c  11.7748894781
_cell_angle_alpha  85.7671098874
_cell_angle_beta  85.7671098874
_cell_angle_gamma  85.7671098858
_symmetry_space_group_name_H-M  'P1'
_symmetry_Int_Tables_Number  1
loop_
_symmetry_equiv_pos_site_id
_symmetry_equiv_pos_as_xyz
  1  x,y,z
loop_
 _atom_site_label
 _atom_site_occupancy
 _atom_site_fract_x
 _atom_site_fract_y
 _atom_site_fract_z
 _atom_site_thermal_displace_type
 _atom_site_B_iso_or_equiv
 _atom_site_type_symbol
Ca1 1.0000000000 0.7407590734 0.7539969249 0.2563666114  Biso 1.0 Ca
Ca2 1.0000000000 0.7556864805 0.2535063798 0.2440032329  Biso 1.0 Ca
Ca3 1.0000000000 0.7354304582 0.7400643871 0.7381863951  Biso 1.0 Ca
Ca4 1.0000000000 0.2409701069 0.7568168183 0.2511661268  Biso 1.0 Ca
Ca5 1.0000000000 0.7509356401 0.2573300521 0.7441703207  Biso 1.0 Ca
Ca6 1.0000000000 0.2377614764 0.2395166394 0.2411042299  Biso 1.0 Ca
Ca7 1.0000000000 0.2541507719 0.7421163816 0.7513790286  Biso 1.0 Ca
Ca8 1.0000000000 0.2511164390 0.2419228024 0.7584033942  Biso 1.0 Ca
I9 1.0000000000 0.8071914770 0.0004320245 0.1679819584  Biso 1.0 I
I10 1.0000000000 0.6659069542 0.5007884814 0.3087165146  Biso 1.0 I
I11 1.0000000000 0.6789276182 0.9984765512 0.8126991656  Biso 1.0 I
I12 1.0000000000 0.1598812023 0.9990197254 0.3205927192  Biso 1.0 I
I13 1.0000000000 0.8165582980 0.5002626328 0.6608437528  Biso 1.0 I
I14 1.0000000000 0.3099816625 0.4975578597 0.1801129851  Biso 1.0 I
I15 1.0000000000 0.3107693121 0.9944741273 0.6705353636  Biso 1.0 I
I16 1.0000000000 0.1665540811 0.4947876950 0.8115502878  Biso 1.0 I
I17 1.0000000000 0.8089398939 0.6820460849 0.9970474450  Biso 1.0 I
I18 1.0000000000 0.6682257429 0.3135579861 0.9964414107  Biso 1.0 I
I19 1.0000000000 0.6575349570 0.8214069105 0.4985084583  Biso 1.0 I
I20 1.0000000000 0.1654476400 0.8077227793 0.9982441069  Biso 1.0 I
I21 1.0000000000 0.8110663988 0.1698639037 0.4962210424  Biso 1.0 I
I22 1.0000000000 0.3169270940 0.1600833700 0.0005873967  Biso 1.0 I
I23 1.0000000000 0.3069299162 0.6677960619 0.4981133400  Biso 1.0 I
I24 1.0000000000 0.1798760383 0.3120535792 0.4987897209  Biso 1.0 I
I25 1.0000000000 0.9929113475 0.6697392310 0.3116571871  Biso 1.0 I
I26 1.0000000000 0.9976037148 0.3209352012 0.1633147031  Biso 1.0 I
I27 1.0000000000 0.9949869703 0.8117512777 0.6797527754  Biso 1.0 I
I28 1.0000000000 0.4930713404 0.8138132942 0.1680208982  Biso 1.0 I
I29 1.0000000000 0.9973857525 0.1678419624 0.8095398621  Biso 1.0 I
I30 1.0000000000 0.4967949653 0.1812789355 0.3131291568  Biso 1.0 I
I31 1.0000000000 0.4963785586 0.6600997385 0.8182495623  Biso 1.0 I
I32 1.0000000000 0.4972565716 0.3085714926 0.6696767291  Biso 1.0 I
Na33 1.0000000000 0.9271557661 0.9298245578 0.9296241088  Biso 1.0 Na
Na34 1.0000000000 0.0550299206 0.5625799250 0.0583994439  Biso 1.0 Na
Na35 1.0000000000 0.0578363193 0.0580368264 0.5636038801  Biso 1.0 Na
Na36 1.0000000000 0.5612259454 0.0616798227 0.0590376003  Biso 1.0 Na
Na37 1.0000000000 0.0601509964 0.5582470764 0.5583844583  Biso 1.0 Na
Na38 1.0000000000 0.5554086648 0.5610406934 0.0625007382  Biso 1.0 Na
Na39 1.0000000000 0.5583367988 0.0638202777 0.5603839911  Biso 1.0 Na
Na40 1.0000000000 0.4285833546 0.4300477029 0.4308821037  Biso 1.0 Na
