# AFLOW.org Repositories
# Ca8Cl24Na8
data_Ca8Cl24Na8
_pd_phase_name Ca8Cl24Na8
_cell_length_a  10.3688638028
_cell_length_b  10.3679689094
_cell_length_c  10.3687132878
_cell_angle_alpha  86.0254721157
_cell_angle_beta  86.0225380089
_cell_angle_gamma  86.0240692066
_symmetry_space_group_name_H-M  'P1'
_symmetry_Int_Tables_Number  1
loop_
_symmetry_equiv_pos_site_id
_symmetry_equiv_pos_as_xyz
  1  x,y,z
loop_
 _atom_site_label
 _atom_site_occupancy
 _atom_site_fract_x
 _atom_site_fract_y
 _atom_site_fract_z
 _atom_site_thermal_displace_type
 _atom_site_B_iso_or_equiv
 _atom_site_type_symbol
Ca1 1.0000000000 0.7519236321 0.7501136345 0.2445052243  Biso 1.0 Ca
Ca2 1.0000000000 0.2439421804 0.7538155926 0.2423669286  Biso 1.0 Ca
Ca3 1.0000000000 0.7472089592 0.2437495470 0.2478223654  Biso 1.0 Ca
Ca4 1.0000000000 0.7503169665 0.7473101574 0.7378197300  Biso 1.0 Ca
Ca5 1.0000000000 0.2465207138 0.2546363525 0.2412292320  Biso 1.0 Ca
Ca6 1.0000000000 0.2512418891 0.7461493042 0.7427057040  Biso 1.0 Ca
Ca7 1.0000000000 0.7408523155 0.2481389282 0.7479302890  Biso 1.0 Ca
Ca8 1.0000000000 0.2533603872 0.2561452833 0.7510740757  Biso 1.0 Ca
Cl9 1.0000000000 0.9971454469 0.8081525272 0.1621062731  Biso 1.0 Cl
Cl10 1.0000000000 0.4984814528 0.6793659539 0.3001906979  Biso 1.0 Cl
Cl11 1.0000000000 0.9949453073 0.1948828156 0.3226150527  Biso 1.0 Cl
Cl12 1.0000000000 0.9972979813 0.6940848145 0.8168629422  Biso 1.0 Cl
Cl13 1.0000000000 0.5007462350 0.3081789203 0.1696940108  Biso 1.0 Cl
Cl14 1.0000000000 0.5022990340 0.8009605669 0.6596025775  Biso 1.0 Cl
Cl15 1.0000000000 0.9955483216 0.3008197127 0.6819676564  Biso 1.0 Cl
Cl16 1.0000000000 0.4986013781 0.1712798335 0.8063923706  Biso 1.0 Cl
Cl17 1.0000000000 0.6687077943 0.9964754503 0.3024331154  Biso 1.0 Cl
Cl18 1.0000000000 0.3232901505 0.0003820801 0.1902951751  Biso 1.0 Cl
Cl19 1.0000000000 0.8066441614 0.4983599439 0.1717112424  Biso 1.0 Cl
Cl20 1.0000000000 0.8236622737 0.9961648178 0.6882215314  Biso 1.0 Cl
Cl21 1.0000000000 0.1641767268 0.5052486884 0.2967548949  Biso 1.0 Cl
Cl22 1.0000000000 0.1801273305 0.9991750982 0.7976802797  Biso 1.0 Cl
Cl23 1.0000000000 0.6685141174 0.5020157427 0.8028418963  Biso 1.0 Cl
Cl24 1.0000000000 0.3088417278 0.5020648842 0.6667746097  Biso 1.0 Cl
Cl25 1.0000000000 0.6792059622 0.8086671511 0.9926036712  Biso 1.0 Cl
Cl26 1.0000000000 0.3063668197 0.6741582257 0.9962228643  Biso 1.0 Cl
Cl27 1.0000000000 0.7982232734 0.1662086778 0.9986336077  Biso 1.0 Cl
Cl28 1.0000000000 0.8073372989 0.6686613905 0.4911433151  Biso 1.0 Cl
Cl29 1.0000000000 0.1744314175 0.3138120637 0.9970932454  Biso 1.0 Cl
Cl30 1.0000000000 0.1947679189 0.8281756493 0.4903477488  Biso 1.0 Cl
Cl31 1.0000000000 0.6935065387 0.3256037640 0.4936322172  Biso 1.0 Cl
Cl32 1.0000000000 0.2989244364 0.1840375224 0.4946098910  Biso 1.0 Cl
Na33 1.0000000000 0.9485819485 0.9475046652 0.9305533071  Biso 1.0 Na
Na34 1.0000000000 0.5484987886 0.0553391335 0.0445704253  Biso 1.0 Na
Na35 1.0000000000 0.0523662733 0.5496128714 0.0448040791  Biso 1.0 Na
Na36 1.0000000000 0.0568937884 0.0588732491 0.5555065573  Biso 1.0 Na
Na37 1.0000000000 0.5483283293 0.5505508968 0.0456505764  Biso 1.0 Na
Na38 1.0000000000 0.4368219552 0.9560086077 0.4433066682  Biso 1.0 Na
Na39 1.0000000000 0.9492342811 0.4360628709 0.4526963534  Biso 1.0 Na
Na40 1.0000000000 0.5452134855 0.5515731235 0.5467131655  Biso 1.0 Na
