# AFLOW.org Repositories
# Ca2F6Na2
data_Ca2F6Na2
_pd_phase_name Ca2F6Na2
_cell_length_a  5.8311094241
_cell_length_b  5.8487853700
_cell_length_c  6.1583044096
_cell_angle_alpha  61.8065342031
_cell_angle_beta  61.8623557777
_cell_angle_gamma  60.1043136804
_symmetry_space_group_name_H-M  'P1'
_symmetry_Int_Tables_Number  1
loop_
_symmetry_equiv_pos_site_id
_symmetry_equiv_pos_as_xyz
  1  x,y,z
loop_
 _atom_site_label
 _atom_site_occupancy
 _atom_site_fract_x
 _atom_site_fract_y
 _atom_site_fract_z
 _atom_site_thermal_displace_type
 _atom_site_B_iso_or_equiv
 _atom_site_type_symbol
Ca1 1.0000000000 0.2603550857 0.2520597891 0.2457792461  Biso 1.0 Ca
Ca2 1.0000000000 0.7600927632 0.7519126032 0.7457474889  Biso 1.0 Ca
F3 1.0000000000 0.4676471464 0.1363267435 0.5411153064  Biso 1.0 F
F4 1.0000000000 0.9658844946 0.3673197972 0.0407384602  Biso 1.0 F
F5 1.0000000000 0.1425142314 0.8689732002 0.5411879100  Biso 1.0 F
F6 1.0000000000 0.3745249499 0.6351091950 0.0394319457  Biso 1.0 F
F7 1.0000000000 0.8762240318 0.4595177797 0.5397918017  Biso 1.0 F
F8 1.0000000000 0.6431684247 0.9585736380 0.0408858259  Biso 1.0 F
Na9 1.0000000000 0.0503501149 0.0425976959 0.8770440542  Biso 1.0 Na
Na10 1.0000000000 0.5491168448 0.5419576984 0.3770660012  Biso 1.0 Na
