# AFLOW.org Repositories
# Br24Ca8Na8
data_Br24Ca8Na8
_pd_phase_name Br24Ca8Na8
_cell_length_a  10.9003511680
_cell_length_b  10.9630638491
_cell_length_c  10.9502230527
_cell_angle_alpha  85.8150471765
_cell_angle_beta  86.0561527390
_cell_angle_gamma  85.8669539770
_symmetry_space_group_name_H-M  'P1'
_symmetry_Int_Tables_Number  1
loop_
_symmetry_equiv_pos_site_id
_symmetry_equiv_pos_as_xyz
  1  x,y,z
loop_
 _atom_site_label
 _atom_site_occupancy
 _atom_site_fract_x
 _atom_site_fract_y
 _atom_site_fract_z
 _atom_site_thermal_displace_type
 _atom_site_B_iso_or_equiv
 _atom_site_type_symbol
Br1 1.0000000000 0.0062464342 0.3302634532 0.1936219393  Biso 1.0 Br
Br2 1.0000000000 0.5093733517 0.1953231708 0.3299343853  Biso 1.0 Br
Br3 1.0000000000 0.9995875946 0.6854993614 0.3304346118  Biso 1.0 Br
Br4 1.0000000000 0.0082549693 0.1873772925 0.8212815054  Biso 1.0 Br
Br5 1.0000000000 0.5042418270 0.8058439428 0.1806225915  Biso 1.0 Br
Br6 1.0000000000 0.5109637583 0.3175537335 0.6718676972  Biso 1.0 Br
Br7 1.0000000000 0.0075736665 0.8376581884 0.6990204096  Biso 1.0 Br
Br8 1.0000000000 0.5100787010 0.6941987221 0.8259551163  Biso 1.0 Br
Br9 1.0000000000 0.1839267172 0.0033507950 0.3237083206  Biso 1.0 Br
Br10 1.0000000000 0.8227396461 0.0048817751 0.1730514211  Biso 1.0 Br
Br11 1.0000000000 0.3257607068 0.4990642740 0.2019867985  Biso 1.0 Br
Br12 1.0000000000 0.3236174418 0.0054207543 0.6938491223  Biso 1.0 Br
Br13 1.0000000000 0.6934996431 0.5024155155 0.3133908563  Biso 1.0 Br
Br14 1.0000000000 0.6884503949 0.0090030881 0.8111040206  Biso 1.0 Br
Br15 1.0000000000 0.1923302565 0.5003606713 0.8391861139  Biso 1.0 Br
Br16 1.0000000000 0.8442102795 0.5038651020 0.6891104893  Biso 1.0 Br
Br17 1.0000000000 0.3476118465 0.1843388249 0.0022862548  Biso 1.0 Br
Br18 1.0000000000 0.7030182283 0.3423023829 0.9982188054  Biso 1.0 Br
Br19 1.0000000000 0.2008149106 0.8247786259 0.0022412984  Biso 1.0 Br
Br20 1.0000000000 0.1915658056 0.3108283283 0.5057622472  Biso 1.0 Br
Br21 1.0000000000 0.8221732821 0.6975303273 0.9981772313  Biso 1.0 Br
Br22 1.0000000000 0.8295845312 0.1936034422 0.5026083329  Biso 1.0 Br
Br23 1.0000000000 0.3258165419 0.6806100140 0.5065018738  Biso 1.0 Br
Br24 1.0000000000 0.6782082990 0.8288145594 0.5018222282  Biso 1.0 Br
Ca25 1.0000000000 0.2586928507 0.2419991185 0.2446344917  Biso 1.0 Ca
Ca26 1.0000000000 0.7588312289 0.2462191141 0.2443456235  Biso 1.0 Ca
Ca27 1.0000000000 0.2468960885 0.7532476201 0.2629164857  Biso 1.0 Ca
Ca28 1.0000000000 0.2637689058 0.2607318149 0.7647611378  Biso 1.0 Ca
Ca29 1.0000000000 0.7571709292 0.7625554266 0.2586138074  Biso 1.0 Ca
Ca30 1.0000000000 0.7564496375 0.2625141213 0.7525698156  Biso 1.0 Ca
Ca31 1.0000000000 0.2569777566 0.7425392623 0.7520412491  Biso 1.0 Ca
Ca32 1.0000000000 0.7579815637 0.7541581356 0.7388498713  Biso 1.0 Ca
Na33 1.0000000000 0.9588012993 0.9413715057 0.9482291849  Biso 1.0 Na
Na34 1.0000000000 0.4481607788 0.9400620649 0.9471224873  Biso 1.0 Na
Na35 1.0000000000 0.9520647038 0.4571975754 0.9529892942  Biso 1.0 Na
Na36 1.0000000000 0.0752793809 0.0649741244 0.5609219759  Biso 1.0 Na
Na37 1.0000000000 0.5545869575 0.5660876514 0.0657760887  Biso 1.0 Na
Na38 1.0000000000 0.5625033909 0.0629862873 0.5625908252  Biso 1.0 Na
Na39 1.0000000000 0.9533289987 0.4459855376 0.4406168456  Biso 1.0 Na
Na40 1.0000000000 0.4473331402 0.4492007248 0.4382959227  Biso 1.0 Na
