# AFLOW.org Repositories
# F24Ge8Na8
data_F24Ge8Na8
_pd_phase_name F24Ge8Na8
_cell_length_a  8.3779206086
_cell_length_b  8.4795704654
_cell_length_c  10.4989371580
_cell_angle_alpha  87.2439843760
_cell_angle_beta  86.5906673646
_cell_angle_gamma  85.5516801841
_symmetry_space_group_name_H-M  'P1'
_symmetry_Int_Tables_Number  1
loop_
_symmetry_equiv_pos_site_id
_symmetry_equiv_pos_as_xyz
  1  x,y,z
loop_
 _atom_site_label
 _atom_site_occupancy
 _atom_site_fract_x
 _atom_site_fract_y
 _atom_site_fract_z
 _atom_site_thermal_displace_type
 _atom_site_B_iso_or_equiv
 _atom_site_type_symbol
F1 1.0000000000 0.8397152125 0.6237833588 0.3112770274  Biso 1.0 F
F2 1.0000000000 0.4012239171 0.7179434878 0.0751716793  Biso 1.0 F
F3 1.0000000000 0.1681155831 0.2554253975 0.3299695121  Biso 1.0 F
F4 1.0000000000 0.0252028481 0.7839974904 0.5122690179  Biso 1.0 F
F5 1.0000000000 0.7167873581 0.0567593628 0.0587351592  Biso 1.0 F
F6 1.0000000000 0.5841851002 0.5697461040 0.7750253100  Biso 1.0 F
F7 1.0000000000 0.0571859084 0.2057130859 0.5993655559  Biso 1.0 F
F8 1.0000000000 0.4490498680 0.2792384412 0.9188428230  Biso 1.0 F
F9 1.0000000000 0.9074898366 0.0949942659 0.2428506513  Biso 1.0 F
F10 1.0000000000 0.2930068290 0.0683006678 0.1343818583  Biso 1.0 F
F11 1.0000000000 0.5338702410 0.5567037208 0.3485486612  Biso 1.0 F
F12 1.0000000000 0.6182254314 0.8797142625 0.7937348745  Biso 1.0 F
F13 1.0000000000 0.1729989332 0.5605343769 0.2358479881  Biso 1.0 F
F14 1.0000000000 0.2489041283 0.0795395746 0.8496230426  Biso 1.0 F
F15 1.0000000000 0.8082662115 0.4091038908 0.5673666256  Biso 1.0 F
F16 1.0000000000 0.2593377199 0.5750968380 0.5690516688  Biso 1.0 F
F17 1.0000000000 0.7677441920 0.6515193665 0.9540212359  Biso 1.0 F
F18 1.0000000000 0.0852263006 0.8029888004 0.0854307632  Biso 1.0 F
F19 1.0000000000 0.7472316291 0.3528725419 0.1216604922  Biso 1.0 F
F20 1.0000000000 0.6389998275 0.7486605425 0.5113386668  Biso 1.0 F
F21 1.0000000000 0.1121960411 0.3241124144 0.0720528892  Biso 1.0 F
F22 1.0000000000 0.2988043073 0.9007698778 0.5441153965  Biso 1.0 F
F23 1.0000000000 0.7796756666 0.0970365036 0.5551394190  Biso 1.0 F
F24 1.0000000000 0.4428139728 0.2403769541 0.6663803728  Biso 1.0 F
Ge25 1.0000000000 0.6408314755 0.7406337520 0.3313267966  Biso 1.0 Ge
Ge26 1.0000000000 0.2437208395 0.7696569303 0.2074536202  Biso 1.0 Ge
Ge27 1.0000000000 0.6936733602 0.1639416245 0.2122529385  Biso 1.0 Ge
Ge28 1.0000000000 0.7600395050 0.6957670704 0.7744484160  Biso 1.0 Ge
Ge29 1.0000000000 0.2909102116 0.2891853526 0.1775956161  Biso 1.0 Ge
Ge30 1.0000000000 0.1698691738 0.7636872194 0.6427462119  Biso 1.0 Ge
Ge31 1.0000000000 0.8506157568 0.2291244446 0.6756050614  Biso 1.0 Ge
Ge32 1.0000000000 0.2851155699 0.2908906633 0.7996155428  Biso 1.0 Ge
Na33 1.0000000000 0.0335776209 0.0668814760 0.0371310559  Biso 1.0 Na
Na34 1.0000000000 0.4821306319 0.9834946398 0.9705034294  Biso 1.0 Na
Na35 1.0000000000 0.9443285849 0.5529545534 0.1084021862  Biso 1.0 Na
Na36 1.0000000000 0.0467820488 0.0438785950 0.4273779702  Biso 1.0 Na
Na37 1.0000000000 0.5540322155 0.4956525726 -0.0006248534  Biso 1.0 Na
Na38 1.0000000000 0.5338830713 0.9907542634 0.5984255408  Biso 1.0 Na
Na39 1.0000000000 0.0417546558 0.4963408642 0.4401426420  Biso 1.0 Na
Na40 1.0000000000 0.5299231717 0.4892388722 0.5657641906  Biso 1.0 Na
