# AFLOW.org Repositories
# Cl12Mg4Na4
data_Cl12Mg4Na4
_pd_phase_name Cl12Mg4Na4
_cell_length_a  6.6164164473
_cell_length_b  6.9582909281
_cell_length_c  9.6547711663
_cell_angle_alpha  90.0010415618
_cell_angle_beta  90.0175835553
_cell_angle_gamma  90.0302936363
_symmetry_space_group_name_H-M  'P1'
_symmetry_Int_Tables_Number  1
loop_
_symmetry_equiv_pos_site_id
_symmetry_equiv_pos_as_xyz
  1  x,y,z
loop_
 _atom_site_label
 _atom_site_occupancy
 _atom_site_fract_x
 _atom_site_fract_y
 _atom_site_fract_z
 _atom_site_thermal_displace_type
 _atom_site_B_iso_or_equiv
 _atom_site_type_symbol
Cl1 1.0000000000 0.3119793220 0.3104669210 0.1827947593  Biso 1.0 Cl
Cl2 1.0000000000 0.6931050392 0.7002737956 0.3023118167  Biso 1.0 Cl
Cl3 1.0000000000 0.3125128421 0.3107014608 0.8018019938  Biso 1.0 Cl
Cl4 1.0000000000 0.6924280671 0.6992628376 0.6828971694  Biso 1.0 Cl
Cl5 1.0000000000 0.8857127825 0.4698553663 0.9926796524  Biso 1.0 Cl
Cl6 1.0000000000 0.6194448696 0.9691425761 0.9925282194  Biso 1.0 Cl
Cl7 1.0000000000 0.1207772300 0.5418594627 0.4926918073  Biso 1.0 Cl
Cl8 1.0000000000 0.3834838615 0.0401740324 0.4924662138  Biso 1.0 Cl
Cl9 1.0000000000 0.8108200609 0.2009232896 0.3027995721  Biso 1.0 Cl
Cl10 1.0000000000 0.1919393880 0.8109817185 0.1824990801  Biso 1.0 Cl
Cl11 1.0000000000 0.8110270497 0.2003548233 0.6832215732  Biso 1.0 Cl
Cl12 1.0000000000 0.1916830641 0.8111812299 0.8022145689  Biso 1.0 Cl
Mg13 1.0000000000 0.0032764308 0.5051786423 0.2429948314  Biso 1.0 Mg
Mg14 1.0000000000 0.5016218363 0.0046674816 0.2425397370  Biso 1.0 Mg
Mg15 1.0000000000 0.0031459379 0.5047450136 0.7425181151  Biso 1.0 Mg
Mg16 1.0000000000 0.5017519847 0.0042619971 0.7422667628  Biso 1.0 Mg
Na17 1.0000000000 0.0265145265 0.0831744179 0.9921557677  Biso 1.0 Na
Na18 1.0000000000 0.4769305948 0.5825253677 0.9919168025  Biso 1.0 Na
Na19 1.0000000000 0.9733457352 0.9279979479 0.4935097610  Biso 1.0 Na
Na20 1.0000000000 0.5260308410 0.4285986317 0.4913079841  Biso 1.0 Na
