# AFLOW.org Repositories
# Br12Mg4Na4
data_Br12Mg4Na4
_pd_phase_name Br12Mg4Na4
_cell_length_a  7.0239163546
_cell_length_b  7.4120673494
_cell_length_c  10.2977719793
_cell_angle_alpha  90.0346860508
_cell_angle_beta  89.9592824631
_cell_angle_gamma  90.0444334490
_symmetry_space_group_name_H-M  'P1'
_symmetry_Int_Tables_Number  1
loop_
_symmetry_equiv_pos_site_id
_symmetry_equiv_pos_as_xyz
  1  x,y,z
loop_
 _atom_site_label
 _atom_site_occupancy
 _atom_site_fract_x
 _atom_site_fract_y
 _atom_site_fract_z
 _atom_site_thermal_displace_type
 _atom_site_B_iso_or_equiv
 _atom_site_type_symbol
Br1 1.0000000000 0.8086670927 0.1943393403 0.3145193150  Biso 1.0 Br
Br2 1.0000000000 0.1839264956 0.8102111738 0.1901190011  Biso 1.0 Br
Br3 1.0000000000 0.8080716587 0.1938252684 0.6902126162  Biso 1.0 Br
Br4 1.0000000000 0.1822969412 0.8114941459 0.8142805467  Biso 1.0 Br
Br5 1.0000000000 0.6201575193 0.9663771995 0.0029032418  Biso 1.0 Br
Br6 1.0000000000 0.8702464928 0.4649460042 0.0028441439  Biso 1.0 Br
Br7 1.0000000000 0.3715078829 0.0397596911 0.5021158860  Biso 1.0 Br
Br8 1.0000000000 0.1192206880 0.5396358199 0.5023482216  Biso 1.0 Br
Br9 1.0000000000 0.6828906241 0.6948505152 0.3150631027  Biso 1.0 Br
Br10 1.0000000000 0.3087328001 0.3114601718 0.1907722303  Biso 1.0 Br
Br11 1.0000000000 0.6825880628 0.6946815491 0.6905132944  Biso 1.0 Br
Br12 1.0000000000 0.3080707622 0.3110644310 0.8148096026  Biso 1.0 Br
Mg13 1.0000000000 0.4961206974 0.0030696130 0.2526511742  Biso 1.0 Mg
Mg14 1.0000000000 0.9949998716 0.5029832157 0.2522091629  Biso 1.0 Mg
Mg15 1.0000000000 0.4954201380 0.0027989627 0.7526843679  Biso 1.0 Mg
Mg16 1.0000000000 0.9948429236 0.5021819374 0.7527202607  Biso 1.0 Mg
Na17 1.0000000000 0.0278432332 0.0882904053 0.0062338038  Biso 1.0 Na
Na18 1.0000000000 0.4649903897 0.5889703539 0.0017710115  Biso 1.0 Na
Na19 1.0000000000 0.9651976691 0.9169093697 0.5014909348  Biso 1.0 Na
Na20 1.0000000000 0.5247332025 0.4177829132 0.5039846837  Biso 1.0 Na
