# AFLOW.org Repositories
# F12Mg4Na4
data_F12Mg4Na4
_pd_phase_name F12Mg4Na4
_cell_length_a  5.5684321257
_cell_length_b  5.4241581012
_cell_length_c  7.7637198609
_cell_angle_alpha  90.0003922302
_cell_angle_beta  90.0016739320
_cell_angle_gamma  90.0007843628
_symmetry_space_group_name_H-M  'P1'
_symmetry_Int_Tables_Number  1
loop_
_symmetry_equiv_pos_site_id
_symmetry_equiv_pos_as_xyz
  1  x,y,z
loop_
 _atom_site_label
 _atom_site_occupancy
 _atom_site_fract_x
 _atom_site_fract_y
 _atom_site_fract_z
 _atom_site_thermal_displace_type
 _atom_site_B_iso_or_equiv
 _atom_site_type_symbol
F1 1.0000000000 0.0356129882 0.5907881521 0.0044620466  Biso 1.0 F
F2 1.0000000000 0.9762589445 0.4074839127 0.5044766089  Biso 1.0 F
F3 1.0000000000 0.5353313124 0.9068662503 0.0045464056  Biso 1.0 F
F4 1.0000000000 0.4765606123 0.0907247236 0.5045129373  Biso 1.0 F
F5 1.0000000000 0.7986860240 0.7943151215 0.7060476326  Biso 1.0 F
F6 1.0000000000 0.8001910907 0.7959706809 0.3022140292  Biso 1.0 F
F7 1.0000000000 0.2131724643 0.2037247586 0.8026885490  Biso 1.0 F
F8 1.0000000000 0.2118307435 0.2025962461 0.2068367681  Biso 1.0 F
F9 1.0000000000 0.2985379695 0.7039238161 0.7059946009  Biso 1.0 F
F10 1.0000000000 0.2999246569 0.7031029432 0.3026363890  Biso 1.0 F
F11 1.0000000000 0.7132939602 0.2937986351 0.8031742072  Biso 1.0 F
F12 1.0000000000 0.7124521768 0.2948455793 0.2065566325  Biso 1.0 F
Mg13 1.0000000000 0.0059382180 0.4989055763 0.7545520162  Biso 1.0 Mg
Mg14 1.0000000000 0.0062489357 0.4991438212 0.2545285554  Biso 1.0 Mg
Mg15 1.0000000000 0.5059736692 0.9987977127 0.7545185146  Biso 1.0 Mg
Mg16 1.0000000000 0.5061132776 0.9987782272 0.2545641856  Biso 1.0 Mg
Na17 1.0000000000 0.9593178862 0.0113652514 0.0046843549  Biso 1.0 Na
Na18 1.0000000000 0.0525108623 0.9873350083 0.5048708107  Biso 1.0 Na
Na19 1.0000000000 0.4592726741 0.4863887620 0.0045626192  Biso 1.0 Na
Na20 1.0000000000 0.5520540090 0.5113245673 0.5044849167  Biso 1.0 Na
