# AFLOW.org Repositories
# F6Na2Pb2
data_F6Na2Pb2
_pd_phase_name F6Na2Pb2
_cell_length_a  6.1800799843
_cell_length_b  6.2916125427
_cell_length_c  6.1878793298
_cell_angle_alpha  60.6358622541
_cell_angle_beta  60.1236140532
_cell_angle_gamma  60.6416998649
_symmetry_space_group_name_H-M  'P1'
_symmetry_Int_Tables_Number  1
loop_
_symmetry_equiv_pos_site_id
_symmetry_equiv_pos_as_xyz
  1  x,y,z
loop_
 _atom_site_label
 _atom_site_occupancy
 _atom_site_fract_x
 _atom_site_fract_y
 _atom_site_fract_z
 _atom_site_thermal_displace_type
 _atom_site_B_iso_or_equiv
 _atom_site_type_symbol
F1 1.0000000000 0.8856523423 0.0733623355 0.6569112612  Biso 1.0 F
F2 1.0000000000 0.3832382931 0.5734650436 0.8305017233  Biso 1.0 F
F3 1.0000000000 0.6566571082 0.0734575375 0.3297518131  Biso 1.0 F
F4 1.0000000000 0.1565756735 0.5742767279 0.3847416522  Biso 1.0 F
F5 1.0000000000 0.3311238693 0.0728107504 0.8843755709  Biso 1.0 F
F6 1.0000000000 0.8287733318 0.5735020846 0.1573090803  Biso 1.0 F
Na7 1.0000000000 0.0157358030 0.8970605685 0.0166763063  Biso 1.0 Na
Na8 1.0000000000 0.5157939904 0.3968636711 0.5166581300  Biso 1.0 Na
Pb9 1.0000000000 0.7330649704 0.7463646616 0.7323368037  Biso 1.0 Pb
Pb10 1.0000000000 0.2319973685 0.2467679957 0.2331150255  Biso 1.0 Pb
