# AFLOW.org Repositories
# Br6Na2Pb2
data_Br6Na2Pb2
_pd_phase_name Br6Na2Pb2
_cell_length_a  7.6456378147
_cell_length_b  7.6591728972
_cell_length_c  8.1437094493
_cell_angle_alpha  62.0612497013
_cell_angle_beta  62.2070883400
_cell_angle_gamma  60.2341458255
_symmetry_space_group_name_H-M  'P1'
_symmetry_Int_Tables_Number  1
loop_
_symmetry_equiv_pos_site_id
_symmetry_equiv_pos_as_xyz
  1  x,y,z
loop_
 _atom_site_label
 _atom_site_occupancy
 _atom_site_fract_x
 _atom_site_fract_y
 _atom_site_fract_z
 _atom_site_thermal_displace_type
 _atom_site_B_iso_or_equiv
 _atom_site_type_symbol
Br1 1.0000000000 0.1625902835 0.5541974931 0.4411586297  Biso 1.0 Br
Br2 1.0000000000 0.3481445756 0.0554408156 0.9387877031  Biso 1.0 Br
Br3 1.0000000000 0.0597920350 0.6584625173 0.9408510606  Biso 1.0 Br
Br4 1.0000000000 0.5621447263 0.8410540610 0.4370467376  Biso 1.0 Br
Br5 1.0000000000 0.6638122189 0.3441551768 0.9404969525  Biso 1.0 Br
Br6 1.0000000000 0.8486640431 0.1590547226 0.4397191980  Biso 1.0 Br
Na7 1.0000000000 0.9572477018 0.9501032226 0.1438140789  Biso 1.0 Na
Na8 1.0000000000 0.4572870985 0.4497135311 0.6444315830  Biso 1.0 Na
Pb9 1.0000000000 0.2613119480 0.2549991182 0.2304445135  Biso 1.0 Pb
Pb10 1.0000000000 0.7590367042 0.7566612147 0.7303948374  Biso 1.0 Pb
