# AFLOW.org Repositories
# Cl6Na2Pb2
data_Cl6Na2Pb2
_pd_phase_name Cl6Na2Pb2
_cell_length_a  7.7319969770
_cell_length_b  7.7284323163
_cell_length_c  7.7317958267
_cell_angle_alpha  56.3831179689
_cell_angle_beta  56.3913382501
_cell_angle_gamma  56.3386595001
_symmetry_space_group_name_H-M  'P1'
_symmetry_Int_Tables_Number  1
loop_
_symmetry_equiv_pos_site_id
_symmetry_equiv_pos_as_xyz
  1  x,y,z
loop_
 _atom_site_label
 _atom_site_occupancy
 _atom_site_fract_x
 _atom_site_fract_y
 _atom_site_fract_z
 _atom_site_thermal_displace_type
 _atom_site_B_iso_or_equiv
 _atom_site_type_symbol
Cl1 1.0000000000 0.6967159051 0.9056883145 0.3228252095  Biso 1.0 Cl
Cl2 1.0000000000 0.8785576129 0.4071200140 0.1407481849  Biso 1.0 Cl
Cl3 1.0000000000 0.4762360721 0.1274341595 0.8213430802  Biso 1.0 Cl
Cl4 1.0000000000 0.1968743225 0.8128094006 0.4162360129  Biso 1.0 Cl
Cl5 1.0000000000 0.3799633108 0.6303144578 0.9162033181  Biso 1.0 Cl
Cl6 1.0000000000 0.9745238003 0.3091144480 0.6392500432  Biso 1.0 Cl
Na7 1.0000000000 0.0831098864 0.0146613942 0.0244626487  Biso 1.0 Na
Na8 1.0000000000 0.5811320687 0.5152344775 0.5271773348  Biso 1.0 Na
Pb9 1.0000000000 0.2807501018 0.2164899128 0.2254239468  Biso 1.0 Pb
Pb10 1.0000000000 0.7833144551 0.7156830102 0.7237939227  Biso 1.0 Pb
