# AFLOW.org Repositories
# F24Na8Sn8
data_F24Na8Sn8
_pd_phase_name F24Na8Sn8
_cell_length_a  9.1210783084
_cell_length_b  9.1200218807
_cell_length_c  8.6285266150
_cell_angle_alpha  87.8974874721
_cell_angle_beta  87.8925660624
_cell_angle_gamma  90.5743671537
_symmetry_space_group_name_H-M  'P1'
_symmetry_Int_Tables_Number  1
loop_
_symmetry_equiv_pos_site_id
_symmetry_equiv_pos_as_xyz
  1  x,y,z
loop_
 _atom_site_label
 _atom_site_occupancy
 _atom_site_fract_x
 _atom_site_fract_y
 _atom_site_fract_z
 _atom_site_thermal_displace_type
 _atom_site_B_iso_or_equiv
 _atom_site_type_symbol
F1 1.0000000000 0.0595985102 0.7760098264 0.1382860674  Biso 1.0 F
F2 1.0000000000 0.5566115201 0.6339465218 0.2884962469  Biso 1.0 F
F3 1.0000000000 0.0386539630 0.1359452412 0.3215765166  Biso 1.0 F
F4 1.0000000000 0.0465864923 0.6255618312 0.7980104497  Biso 1.0 F
F5 1.0000000000 0.5584401005 0.3000103472 0.1172165220  Biso 1.0 F
F6 1.0000000000 0.5577251470 0.8057671952 0.6203458810  Biso 1.0 F
F7 1.0000000000 0.9819375865 0.2892643468 0.6771772584  Biso 1.0 F
F8 1.0000000000 0.4614419504 0.1140403128 0.8114856180  Biso 1.0 F
F9 1.0000000000 0.6219478138 0.0500053726 0.2989080327  Biso 1.0 F
F10 1.0000000000 0.2860776719 0.9844730338 0.1796883237  Biso 1.0 F
F11 1.0000000000 0.8035933166 0.5622918217 0.1176939419  Biso 1.0 F
F12 1.0000000000 0.7730031463 0.0622875880 0.6389360034  Biso 1.0 F
F13 1.0000000000 0.1117298025 0.4651521444 0.3100826356  Biso 1.0 F
F14 1.0000000000 0.1319404313 0.0418036335 0.8218649180  Biso 1.0 F
F15 1.0000000000 0.6317235056 0.5593353364 0.7892051532  Biso 1.0 F
F16 1.0000000000 0.2956679490 0.5627495198 0.6159734791  Biso 1.0 F
F17 1.0000000000 0.5990610744 0.8068019836 0.9724356230  Biso 1.0 F
F18 1.0000000000 0.2993312014 0.5923983344 0.9747045957  Biso 1.0 F
F19 1.0000000000 0.8080585568 0.1109414725 0.9717891481  Biso 1.0 F
F20 1.0000000000 0.8025132205 0.6017010213 0.4710899227  Biso 1.0 F
F21 1.0000000000 0.1343316152 0.2756313303 0.0484826534  Biso 1.0 F
F22 1.0000000000 0.1051595062 0.8093795573 0.4715100956  Biso 1.0 F
F23 1.0000000000 0.5882896066 0.3021154211 0.4765333247  Biso 1.0 F
F24 1.0000000000 0.2733201769 0.1332401280 0.5489552927  Biso 1.0 F
Na25 1.0000000000 0.0310066710 0.0314351639 0.0674827199  Biso 1.0 Na
Na26 1.0000000000 0.5225869101 0.0336029518 0.0557632350  Biso 1.0 Na
Na27 1.0000000000 0.0460079507 0.5225173753 0.0493070844  Biso 1.0 Na
Na28 1.0000000000 0.0279116781 0.0333399742 0.5667730016  Biso 1.0 Na
Na29 1.0000000000 0.5377362547 0.5432058883 0.0397170564  Biso 1.0 Na
Na30 1.0000000000 0.5197527385 0.0486908343 0.5507977624  Biso 1.0 Na
Na31 1.0000000000 0.0299373126 0.5276485507 0.5538934856  Biso 1.0 Na
Na32 1.0000000000 0.5395630718 0.5415665553 0.5404728450  Biso 1.0 Na
Sn33 1.0000000000 0.7658373957 0.7361442962 0.2695134544  Biso 1.0 Sn
Sn34 1.0000000000 0.2460000540 0.7637528897 0.2764942421  Biso 1.0 Sn
Sn35 1.0000000000 0.7251393971 0.2593908094 0.2770092583  Biso 1.0 Sn
Sn36 1.0000000000 0.7328900919 0.7690043224 0.7706821451  Biso 1.0 Sn
Sn37 1.0000000000 0.2320877700 0.2617599958 0.2753366851  Biso 1.0 Sn
Sn38 1.0000000000 0.2553021178 0.7298273454 0.7760240366  Biso 1.0 Sn
Sn39 1.0000000000 0.7623109813 0.2500594434 0.7759536823  Biso 1.0 Sn
Sn40 1.0000000000 0.2587727961 0.2345171528 0.7741051285  Biso 1.0 Sn
