# AFLOW.org Repositories
# Br12Na4Sn4
data_Br12Na4Sn4
_pd_phase_name Br12Na4Sn4
_cell_length_a  7.4530790033
_cell_length_b  8.1906781606
_cell_length_c  10.9251658890
_cell_angle_alpha  89.9377933034
_cell_angle_beta  89.9832636975
_cell_angle_gamma  90.0386623414
_symmetry_space_group_name_H-M  'P1'
_symmetry_Int_Tables_Number  1
loop_
_symmetry_equiv_pos_site_id
_symmetry_equiv_pos_as_xyz
  1  x,y,z
loop_
 _atom_site_label
 _atom_site_occupancy
 _atom_site_fract_x
 _atom_site_fract_y
 _atom_site_fract_z
 _atom_site_thermal_displace_type
 _atom_site_B_iso_or_equiv
 _atom_site_type_symbol
Br1 1.0000000000 0.1337217547 0.3774178350 0.0158810692  Biso 1.0 Br
Br2 1.0000000000 0.8521828431 0.6382013741 0.5153751956  Biso 1.0 Br
Br3 1.0000000000 0.3540654385 0.8761990893 0.0183582983  Biso 1.0 Br
Br4 1.0000000000 0.6318413977 0.1368445708 0.5174346806  Biso 1.0 Br
Br5 1.0000000000 0.1713636789 0.2947406197 0.6450782531  Biso 1.0 Br
Br6 1.0000000000 0.1461206897 0.0847620193 0.3076679762  Biso 1.0 Br
Br7 1.0000000000 0.8386802873 0.9267231802 0.8077021419  Biso 1.0 Br
Br8 1.0000000000 0.8152812966 0.7193640209 0.1477689257  Biso 1.0 Br
Br9 1.0000000000 0.6450267545 0.4277322979 0.8064595808  Biso 1.0 Br
Br10 1.0000000000 0.6716377136 0.2189930808 0.1479952205  Biso 1.0 Br
Br11 1.0000000000 0.3104594242 0.7942076045 0.6470723492  Biso 1.0 Br
Br12 1.0000000000 0.3410315551 0.5861913984 0.3072728386  Biso 1.0 Br
Na13 1.0000000000 0.9909077528 0.0267403564 0.0526905024  Biso 1.0 Na
Na14 1.0000000000 0.9922658573 0.9879516298 0.5520188472  Biso 1.0 Na
Na15 1.0000000000 0.4952888803 0.5258947820 0.0517580384  Biso 1.0 Na
Na16 1.0000000000 0.4880180584 0.4879314183 0.5525099878  Biso 1.0 Na
Sn17 1.0000000000 0.9868195247 0.5695668830 0.7488289227  Biso 1.0 Sn
Sn18 1.0000000000 0.0002460648 0.4448714079 0.2499731352  Biso 1.0 Sn
Sn19 1.0000000000 0.4995717960 0.0688894155 0.7514521047  Biso 1.0 Sn
Sn20 1.0000000000 0.4860738225 0.9440553881 0.2525070656  Biso 1.0 Sn
