# AFLOW.org Repositories
# F12Na4Sr4
data_F12Na4Sr4
_pd_phase_name F12Na4Sr4
_cell_length_a  5.8027726596
_cell_length_b  6.2637406047
_cell_length_c  8.4505047975
_cell_angle_alpha  89.9335799749
_cell_angle_beta  90.0385926129
_cell_angle_gamma  90.0087058516
_symmetry_space_group_name_H-M  'P1'
_symmetry_Int_Tables_Number  1
loop_
_symmetry_equiv_pos_site_id
_symmetry_equiv_pos_as_xyz
  1  x,y,z
loop_
 _atom_site_label
 _atom_site_occupancy
 _atom_site_fract_x
 _atom_site_fract_y
 _atom_site_fract_z
 _atom_site_thermal_displace_type
 _atom_site_B_iso_or_equiv
 _atom_site_type_symbol
F1 1.0000000000 0.1416799360 0.0617688767 0.7562449587  Biso 1.0 F
F2 1.0000000000 0.8133881858 0.6856321952 0.5805315614  Biso 1.0 F
F3 1.0000000000 0.8065497849 0.6901854029 0.9322567570  Biso 1.0 F
F4 1.0000000000 0.1791985844 0.3120864455 0.0738669109  Biso 1.0 F
F5 1.0000000000 0.8552895543 0.9332793109 0.2569155087  Biso 1.0 F
F6 1.0000000000 0.1927749512 0.3027831485 0.4271478610  Biso 1.0 F
F7 1.0000000000 0.6915096146 0.1893841346 0.5833634645  Biso 1.0 F
F8 1.0000000000 0.3548021196 0.5621749246 0.7555736439  Biso 1.0 F
F9 1.0000000000 0.6418282428 0.4333615618 0.2553820750  Biso 1.0 F
F10 1.0000000000 0.6811128370 0.1859279391 0.9352260535  Biso 1.0 F
F11 1.0000000000 0.3126995002 0.8069181069 0.4320745345  Biso 1.0 F
F12 1.0000000000 0.3075845229 0.8071868191 0.0795888351  Biso 1.0 F
Na13 1.0000000000 0.9965307501 0.9972844735 0.0060648518  Biso 1.0 Na
Na14 1.0000000000 0.4961787059 0.4996558426 0.0065243905  Biso 1.0 Na
Na15 1.0000000000 0.0005250956 0.9977206355 0.5063258077  Biso 1.0 Na
Na16 1.0000000000 0.5005426338 0.4955190233 0.5067103188  Biso 1.0 Na
Sr17 1.0000000000 0.9702595601 0.4165206645 0.7620767977  Biso 1.0 Sr
Sr18 1.0000000000 0.5264117755 0.9165596367 0.7544416316  Biso 1.0 Sr
Sr19 1.0000000000 0.0270299499 0.5785619593 0.2579636616  Biso 1.0 Sr
Sr20 1.0000000000 0.4705554953 0.0782069532 0.2527363184  Biso 1.0 Sr
