# AFLOW.org Repositories
# Br24Na8Sr8
data_Br24Na8Sr8
_pd_phase_name Br24Na8Sr8
_cell_length_a  11.2219453031
_cell_length_b  11.2104042504
_cell_length_c  11.2212602646
_cell_angle_alpha  86.1439122189
_cell_angle_beta  86.1453760149
_cell_angle_gamma  86.1126139933
_symmetry_space_group_name_H-M  'P1'
_symmetry_Int_Tables_Number  1
loop_
_symmetry_equiv_pos_site_id
_symmetry_equiv_pos_as_xyz
  1  x,y,z
loop_
 _atom_site_label
 _atom_site_occupancy
 _atom_site_fract_x
 _atom_site_fract_y
 _atom_site_fract_z
 _atom_site_thermal_displace_type
 _atom_site_B_iso_or_equiv
 _atom_site_type_symbol
Br1 1.0000000000 0.9950935231 0.6445679542 0.3045544312  Biso 1.0 Br
Br2 1.0000000000 0.4946166140 0.8011611970 0.1451457835  Biso 1.0 Br
Br3 1.0000000000 0.9951146519 0.3009280670 0.1495433491  Biso 1.0 Br
Br4 1.0000000000 0.9976432460 0.8022984261 0.6464211116  Biso 1.0 Br
Br5 1.0000000000 0.4951924147 0.1420181813 0.3057341107  Biso 1.0 Br
Br6 1.0000000000 0.4972254685 0.6459261734 0.8032775489  Biso 1.0 Br
Br7 1.0000000000 0.9962932413 0.1441290066 0.8069238014  Biso 1.0 Br
Br8 1.0000000000 0.4962647121 0.3024064562 0.6491166504  Biso 1.0 Br
Br9 1.0000000000 0.7983959717 0.9980588303 0.1450391523  Biso 1.0 Br
Br10 1.0000000000 0.1386113916 0.9957537123 0.3076650047  Biso 1.0 Br
Br11 1.0000000000 0.6417515926 0.4978754290 0.3034292675  Biso 1.0 Br
Br12 1.0000000000 0.6430913996 0.9983851589 0.8041959025  Biso 1.0 Br
Br13 1.0000000000 0.2991258520 0.4950622092 0.1517299914  Biso 1.0 Br
Br14 1.0000000000 0.3009901052 0.9979649915 0.6471262041  Biso 1.0 Br
Br15 1.0000000000 0.8005728854 0.4979163573 0.6467070330  Biso 1.0 Br
Br16 1.0000000000 0.1441011912 0.4975055769 0.8048759481  Biso 1.0 Br
Br17 1.0000000000 0.8004343287 0.6425059708 0.9974837820  Biso 1.0 Br
Br18 1.0000000000 0.1437482897 0.8002184962 0.0016092926  Biso 1.0 Br
Br19 1.0000000000 0.6383949616 0.3016615320 0.0017040296  Biso 1.0 Br
Br20 1.0000000000 0.6452478872 0.8021779991 0.4973761948  Biso 1.0 Br
Br21 1.0000000000 0.2978570514 0.1419020604 0.0043890563  Biso 1.0 Br
Br22 1.0000000000 0.3013157693 0.6439547026 0.5015036208  Biso 1.0 Br
Br23 1.0000000000 0.7996362552 0.1473883466 0.5016641722  Biso 1.0 Br
Br24 1.0000000000 0.1429192822 0.3009488193 0.5044622970  Biso 1.0 Br
Na25 1.0000000000 0.0456702013 0.0470186159 0.0532634966  Biso 1.0 Na
Na26 1.0000000000 0.5450626301 0.0482572786 0.0511117980  Biso 1.0 Na
Na27 1.0000000000 0.0483432265 0.5477727931 0.0522802377  Biso 1.0 Na
Na28 1.0000000000 0.0451355529 0.0504084950 0.5541872019  Biso 1.0 Na
Na29 1.0000000000 0.5440925229 0.5486850571 0.0503001700  Biso 1.0 Na
Na30 1.0000000000 0.5485042162 0.0486967948 0.5521696763  Biso 1.0 Na
Na31 1.0000000000 0.0473580275 0.5486115296 0.5519692114  Biso 1.0 Na
Na32 1.0000000000 0.5484693242 0.5486915597 0.5506549020  Biso 1.0 Na
Sr33 1.0000000000 0.7447842124 0.7460383764 0.2447819436  Biso 1.0 Sr
Sr34 1.0000000000 0.2448727616 0.7461491295 0.2519070955  Biso 1.0 Sr
Sr35 1.0000000000 0.7435355992 0.2463284078 0.2496819670  Biso 1.0 Sr
Sr36 1.0000000000 0.7467216554 0.7482691691 0.7465812895  Biso 1.0 Sr
Sr37 1.0000000000 0.2430772786 0.2433065310 0.2544698517  Biso 1.0 Sr
Sr38 1.0000000000 0.2459615379 0.7472597372 0.7495662414  Biso 1.0 Sr
Sr39 1.0000000000 0.7455133090 0.2481171257 0.7525402316  Biso 1.0 Sr
Sr40 1.0000000000 0.2471485214 0.2450062777 0.7531122920  Biso 1.0 Sr
