# AFLOW.org Repositories
# Be8Cl24Rb8
data_Be8Cl24Rb8
_pd_phase_name Be8Cl24Rb8
_cell_length_a  9.4300748740
_cell_length_b  9.5791020659
_cell_length_c  12.7950706483
_cell_angle_alpha  89.8814672602
_cell_angle_beta  88.5211110154
_cell_angle_gamma  90.1428517962
_symmetry_space_group_name_H-M  'P1'
_symmetry_Int_Tables_Number  1
loop_
_symmetry_equiv_pos_site_id
_symmetry_equiv_pos_as_xyz
  1  x,y,z
loop_
 _atom_site_label
 _atom_site_occupancy
 _atom_site_fract_x
 _atom_site_fract_y
 _atom_site_fract_z
 _atom_site_thermal_displace_type
 _atom_site_B_iso_or_equiv
 _atom_site_type_symbol
Be1 1.0000000000 0.2456934493 0.1602228833 0.2867734789  Biso 1.0 Be
Be2 1.0000000000 0.6254958054 0.2250861221 0.2099320824  Biso 1.0 Be
Be3 1.0000000000 0.3078398398 0.7793723105 0.3080511899  Biso 1.0 Be
Be4 1.0000000000 0.2557352525 0.3433693863 0.7848795897  Biso 1.0 Be
Be5 1.0000000000 0.7049058306 0.8660758826 0.2865834013  Biso 1.0 Be
Be6 1.0000000000 0.8707184460 0.2701647255 0.7129840622  Biso 1.0 Be
Be7 1.0000000000 0.1856346492 0.7167015597 0.8066499040  Biso 1.0 Be
Be8 1.0000000000 0.7892651582 0.6341376410 0.7885601816  Biso 1.0 Be
Cl9 1.0000000000 0.0746098577 0.2610842839 0.2381743689  Biso 1.0 Cl
Cl10 1.0000000000 0.4100310040 0.1884649243 0.1756054630  Biso 1.0 Cl
Cl11 1.0000000000 0.8388961580 0.8235958688 0.1722774657  Biso 1.0 Cl
Cl12 1.0000000000 0.0903614285 0.3030082315 0.6818193448  Biso 1.0 Cl
Cl13 1.0000000000 0.5035063101 0.8033667955 0.2317424154  Biso 1.0 Cl
Cl14 1.0000000000 0.4268911993 0.2410724181 0.7320604938  Biso 1.0 Cl
Cl15 1.0000000000 0.9936413553 0.6900003031 0.7299927778  Biso 1.0 Cl
Cl16 1.0000000000 0.6601094778 0.6929043531 0.6789254336  Biso 1.0 Cl
Cl17 1.0000000000 0.1829438792 0.9511277861 0.2748769240  Biso 1.0 Cl
Cl18 1.0000000000 0.6892478959 0.0811027051 0.3192673851  Biso 1.0 Cl
Cl19 1.0000000000 0.2176101542 0.6127018550 0.2438257344  Biso 1.0 Cl
Cl20 1.0000000000 0.2710792407 0.8929121968 0.7494882072  Biso 1.0 Cl
Cl21 1.0000000000 0.6525559142 0.4162764744 0.2668706888  Biso 1.0 Cl
Cl22 1.0000000000 0.8390805467 0.0808926689 0.7746369622  Biso 1.0 Cl
Cl23 1.0000000000 0.3147186260 0.5517144726 0.7608229425  Biso 1.0 Cl
Cl24 1.0000000000 0.7927018223 0.4169584027 0.8156278134  Biso 1.0 Cl
Cl25 1.0000000000 0.2014608959 0.3050966928 0.9333839422  Biso 1.0 Cl
Cl26 1.0000000000 0.7200696817 0.2104036965 0.0677710728  Biso 1.0 Cl
Cl27 1.0000000000 0.1716053472 0.7239859571 0.9622688369  Biso 1.0 Cl
Cl28 1.0000000000 0.2989223320 0.2082596402 0.4322425676  Biso 1.0 Cl
Cl29 1.0000000000 0.7364653857 0.7129994426 0.9278827270  Biso 1.0 Cl
Cl30 1.0000000000 0.7931758021 0.2772457294 0.5677979970  Biso 1.0 Cl
Cl31 1.0000000000 0.3128982068 0.7568866340 0.4640951555  Biso 1.0 Cl
Cl32 1.0000000000 0.7542821578 0.7782282722 0.4225157288  Biso 1.0 Cl
Rb33 1.0000000000 0.0094136053 0.0269171284 0.0113136459  Biso 1.0 Rb
Rb34 1.0000000000 0.5255739463 0.0069209799 0.9151947247  Biso 1.0 Rb
Rb35 1.0000000000 0.9402759974 0.5080735502 0.0813622226  Biso 1.0 Rb
Rb36 1.0000000000 0.0393502455 0.9760323317 0.5534873234  Biso 1.0 Rb
Rb37 1.0000000000 0.4473676219 0.5189252962 0.0507602355  Biso 1.0 Rb
Rb38 1.0000000000 0.5398767691 0.9900765725 0.5659690482  Biso 1.0 Rb
Rb39 1.0000000000 0.0256160305 0.4849493299 0.4409361300  Biso 1.0 Rb
Rb40 1.0000000000 0.5181445431 0.4797409290 0.5129139816  Biso 1.0 Rb
