# AFLOW.org Repositories
# Be8F24Rb8
data_Be8F24Rb8
_pd_phase_name Be8F24Rb8
_cell_length_a  10.8088037110
_cell_length_b  7.8242169693
_cell_length_c  7.7751959554
_cell_angle_alpha  92.1960577215
_cell_angle_beta  90.0003396991
_cell_angle_gamma  89.9998202776
_symmetry_space_group_name_H-M  'P1'
_symmetry_Int_Tables_Number  1
loop_
_symmetry_equiv_pos_site_id
_symmetry_equiv_pos_as_xyz
  1  x,y,z
loop_
 _atom_site_label
 _atom_site_occupancy
 _atom_site_fract_x
 _atom_site_fract_y
 _atom_site_fract_z
 _atom_site_thermal_displace_type
 _atom_site_B_iso_or_equiv
 _atom_site_type_symbol
Be1 1.0000000000 0.2198728295 0.1612746230 0.2167324686  Biso 1.0 Be
Be2 1.0000000000 0.7196552285 0.3396616422 0.2805385241  Biso 1.0 Be
Be3 1.0000000000 0.2094330129 0.7719207872 0.1598079608  Biso 1.0 Be
Be4 1.0000000000 0.2767173258 0.2281694095 0.8410313351  Biso 1.0 Be
Be5 1.0000000000 0.7092211737 0.7286342721 0.3378601117  Biso 1.0 Be
Be6 1.0000000000 0.7766853566 0.2719490738 0.6563964236  Biso 1.0 Be
Be7 1.0000000000 0.2663682853 0.8395022520 0.7823481465  Biso 1.0 Be
Be8 1.0000000000 0.7659780733 0.6603012734 0.7145658783  Biso 1.0 Be
F9 1.0000000000 0.0805736885 0.1947982020 0.2011350789  Biso 1.0 F
F10 1.0000000000 0.5802854943 0.3066812317 0.2961559615  Biso 1.0 F
F11 1.0000000000 0.0807300271 0.7173197293 0.2206690203  Biso 1.0 F
F12 1.0000000000 0.9050049980 0.2180569084 0.7193040275  Biso 1.0 F
F13 1.0000000000 0.5808589532 0.7834057012 0.2759944955  Biso 1.0 F
F14 1.0000000000 0.4048844878 0.2826093078 0.7780311003  Biso 1.0 F
F15 1.0000000000 0.9054943544 0.6935255261 0.7002447101  Biso 1.0 F
F16 1.0000000000 0.4059071705 0.8057203982 0.7951648608  Biso 1.0 F
F17 1.0000000000 0.2410162209 0.9590842963 0.2451074214  Biso 1.0 F
F18 1.0000000000 0.8119462823 0.8507100675 0.2996705360  Biso 1.0 F
F19 1.0000000000 0.3121016529 0.6501246764 0.1991320540  Biso 1.0 F
F20 1.0000000000 0.2442730206 0.0413939492 0.7558598290  Biso 1.0 F
F21 1.0000000000 0.7413265093 0.5417996593 0.2526123533  Biso 1.0 F
F22 1.0000000000 0.6742399027 0.1491323730 0.6935542841  Biso 1.0 F
F23 1.0000000000 0.1740021792 0.3505019226 0.8039196286  Biso 1.0 F
F24 1.0000000000 0.7437583883 0.4585759186 0.7416807068  Biso 1.0 F
F25 1.0000000000 0.2926031505 0.1990625740 0.0446266428  Biso 1.0 F
F26 1.0000000000 0.7756487036 0.2433495744 0.1255334313  Biso 1.0 F
F27 1.0000000000 0.1955459237 0.8003559971 0.9558609439  Biso 1.0 F
F28 1.0000000000 0.2761260623 0.2574043843 0.3716013140  Biso 1.0 F
F29 1.0000000000 0.7095450193 0.7564885258 0.8693060498  Biso 1.0 F
F30 1.0000000000 0.7922544985 0.3011041037 0.4527788072  Biso 1.0 F
F31 1.0000000000 0.2089554289 0.7434859198 0.6283390214  Biso 1.0 F
F32 1.0000000000 0.6942912388 0.6995841362 0.5417657925  Biso 1.0 F
Rb33 1.0000000000 0.9217684345 0.9636139757 0.9983910326  Biso 1.0 Rb
Rb34 1.0000000000 0.5654036746 0.0370675830 -0.0036104140  Biso 1.0 Rb
Rb35 1.0000000000 0.9708280035 0.4601555462 0.9963312838  Biso 1.0 Rb
Rb36 1.0000000000 1.0136364436 0.9591345371 0.4959226409  Biso 1.0 Rb
Rb37 1.0000000000 0.5133589227 0.5409771160 0.0018487504  Biso 1.0 Rb
Rb38 1.0000000000 0.4711827509 0.0408890623 0.5002762518  Biso 1.0 Rb
Rb39 1.0000000000 0.0654809453 0.4630510157 0.5002498211  Biso 1.0 Rb
Rb40 1.0000000000 0.4219881057 0.5372440410 0.4997432943  Biso 1.0 Rb
