# AFLOW.org Repositories
# Br12Ca4Rb4
data_Br12Ca4Rb4
_pd_phase_name Br12Ca4Rb4
_cell_length_a  8.1305147180
_cell_length_b  7.8982433960
_cell_length_c  11.2992457260
_cell_angle_alpha  90.0000000000
_cell_angle_beta  90.0000000000
_cell_angle_gamma  90.0000000000
_symmetry_space_group_name_H-M  'P1'
_symmetry_Int_Tables_Number  1
loop_
_symmetry_equiv_pos_site_id
_symmetry_equiv_pos_as_xyz
  1  x,y,z
loop_
 _atom_site_label
 _atom_site_occupancy
 _atom_site_fract_x
 _atom_site_fract_y
 _atom_site_fract_z
 _atom_site_thermal_displace_type
 _atom_site_B_iso_or_equiv
 _atom_site_type_symbol
Br1 1.0000000000 0.9941558143 0.4176128633 0.9887263124  Biso 1.0 Br
Br2 1.0000000000 0.0291818560 0.5808346679 0.4889872469  Biso 1.0 Br
Br3 1.0000000000 0.4964934607 0.0809755433 0.9887332518  Biso 1.0 Br
Br4 1.0000000000 0.5267786713 0.9197441755 0.4887364638  Biso 1.0 Br
Br5 1.0000000000 0.3041024272 0.7052011151 0.1955455650  Biso 1.0 Br
Br6 1.0000000000 0.3058522733 0.7035889427 0.7809403206  Biso 1.0 Br
Br7 1.0000000000 0.7192648354 0.2943685784 0.2817716197  Biso 1.0 Br
Br8 1.0000000000 0.7169168192 0.2965818629 0.6969238877  Biso 1.0 Br
Br9 1.0000000000 0.8040825454 0.7942089659 0.1967100029  Biso 1.0 Br
Br10 1.0000000000 0.8060925621 0.7964087943 0.7812229882  Biso 1.0 Br
Br11 1.0000000000 0.2175066796 0.2035966682 0.2812056997  Biso 1.0 Br
Br12 1.0000000000 0.2172965244 0.2035293811 0.6991613371  Biso 1.0 Br
Ca13 1.0000000000 0.0118566429 0.4994781817 0.2388155701  Biso 1.0 Ca
Ca14 1.0000000000 0.0115342501 0.4996495920 0.7388221809  Biso 1.0 Ca
Ca15 1.0000000000 0.5116129217 0.9998705148 0.2388134602  Biso 1.0 Ca
Ca16 1.0000000000 0.5114341901 0.9998415210 0.7388237173  Biso 1.0 Ca
Rb17 1.0000000000 0.0712067182 0.9841169169 0.9900021339  Biso 1.0 Rb
Rb18 1.0000000000 0.9532298014 0.0154895682 0.4907279746  Biso 1.0 Rb
Rb19 1.0000000000 0.5700472739 0.5175567648 0.9885679320  Biso 1.0 Rb
Rb20 1.0000000000 0.4535523860 0.4824938444 0.4881544683  Biso 1.0 Rb
