# AFLOW.org Repositories
# Ca4Cl12Rb4
data_Ca4Cl12Rb4
_pd_phase_name Ca4Cl12Rb4
_cell_length_a  7.6825474844
_cell_length_b  7.5335508729
_cell_length_c  10.7339524745
_cell_angle_alpha  89.9985006948
_cell_angle_beta  89.9936253709
_cell_angle_gamma  89.9846932949
_symmetry_space_group_name_H-M  'P1'
_symmetry_Int_Tables_Number  1
loop_
_symmetry_equiv_pos_site_id
_symmetry_equiv_pos_as_xyz
  1  x,y,z
loop_
 _atom_site_label
 _atom_site_occupancy
 _atom_site_fract_x
 _atom_site_fract_y
 _atom_site_fract_z
 _atom_site_thermal_displace_type
 _atom_site_B_iso_or_equiv
 _atom_site_type_symbol
Ca1 1.0000000000 0.0006950778 0.4930959115 0.2507467665  Biso 1.0 Ca
Ca2 1.0000000000 0.5012549999 0.9926025324 0.2508724084  Biso 1.0 Ca
Ca3 1.0000000000 0.0004125549 0.4931961380 0.7504283031  Biso 1.0 Ca
Ca4 1.0000000000 0.5008830093 0.9927578712 0.7503443892  Biso 1.0 Ca
Cl5 1.0000000000 0.2137336081 0.7815049596 0.2885382761  Biso 1.0 Cl
Cl6 1.0000000000 0.7885812059 0.2042113397 0.2121767052  Biso 1.0 Cl
Cl7 1.0000000000 0.2113091126 0.7837558025 0.7132005926  Biso 1.0 Cl
Cl8 1.0000000000 0.7898903658 0.2026473650 0.7880586289  Biso 1.0 Cl
Cl9 1.0000000000 0.7139717809 0.7042978405 0.2905757470  Biso 1.0 Cl
Cl10 1.0000000000 0.2890452207 0.2824177849 0.2140707434  Biso 1.0 Cl
Cl11 1.0000000000 0.7117502300 0.7026783790 0.7117493318  Biso 1.0 Cl
Cl12 1.0000000000 0.2900640855 0.2838408154 0.7876542549  Biso 1.0 Cl
Cl13 1.0000000000 0.9814740843 0.5662999153 0.0005780637  Biso 1.0 Cl
Cl14 1.0000000000 0.4838851434 0.9223451415 0.0006188826  Biso 1.0 Cl
Cl15 1.0000000000 0.0201519456 0.4194254327 0.5006893001  Biso 1.0 Cl
Cl16 1.0000000000 0.5186300807 0.0644426054 0.5006331618  Biso 1.0 Cl
Rb17 1.0000000000 0.0486722075 0.0056754966 0.0002121423  Biso 1.0 Rb
Rb18 1.0000000000 0.5461049810 0.4803935312 0.0006490367  Biso 1.0 Rb
Rb19 1.0000000000 0.9535707335 0.9815741951 0.5006653009  Biso 1.0 Rb
Rb20 1.0000000000 0.4529725500 0.5035179192 0.5005676826  Biso 1.0 Rb
