# AFLOW.org Repositories
# Ca4I12Rb4
data_Ca4I12Rb4
_pd_phase_name Ca4I12Rb4
_cell_length_a  8.4160990665
_cell_length_b  8.7949333456
_cell_length_c  12.1418849219
_cell_angle_alpha  89.9976198427
_cell_angle_beta  89.9983478108
_cell_angle_gamma  89.9985515214
_symmetry_space_group_name_H-M  'P1'
_symmetry_Int_Tables_Number  1
loop_
_symmetry_equiv_pos_site_id
_symmetry_equiv_pos_as_xyz
  1  x,y,z
loop_
 _atom_site_label
 _atom_site_occupancy
 _atom_site_fract_x
 _atom_site_fract_y
 _atom_site_fract_z
 _atom_site_thermal_displace_type
 _atom_site_B_iso_or_equiv
 _atom_site_type_symbol
Ca1 1.0000000000 0.5044637146 0.0007643016 0.2549344200  Biso 1.0 Ca
Ca2 1.0000000000 0.0033150651 0.5012465897 0.2551913365  Biso 1.0 Ca
Ca3 1.0000000000 0.5038453343 0.0005612368 0.7543776176  Biso 1.0 Ca
Ca4 1.0000000000 0.0025725699 0.5014324713 0.7546151804  Biso 1.0 Ca
I5 1.0000000000 0.8089203383 0.1999137821 0.2071897447  Biso 1.0 I
I6 1.0000000000 0.1998788691 0.8016408502 0.3022394285  Biso 1.0 I
I7 1.0000000000 0.8074862493 0.2009479851 0.8013855451  Biso 1.0 I
I8 1.0000000000 0.1998647171 0.8009681499 0.7072723844  Biso 1.0 I
I9 1.0000000000 0.4100461423 0.0174984290 0.0048801334  Biso 1.0 I
I10 1.0000000000 0.0964279685 0.5171919656 0.0048471747  Biso 1.0 I
I11 1.0000000000 0.5986254554 0.9833576466 0.5048976034  Biso 1.0 I
I12 1.0000000000 0.9070936950 0.4845135279 0.5047450128  Biso 1.0 I
I13 1.0000000000 0.6991217874 0.6997029560 0.2078150995  Biso 1.0 I
I14 1.0000000000 0.3093227702 0.3027625333 0.3016648287  Biso 1.0 I
I15 1.0000000000 0.6985036795 0.6996997852 0.8022405873  Biso 1.0 I
I16 1.0000000000 0.3072496577 0.3014395736 0.7072987236  Biso 1.0 I
Rb17 1.0000000000 0.9772440108 0.9245829799 0.0037841826  Biso 1.0 Rb
Rb18 1.0000000000 0.5283716659 0.4252105858 0.0059207860  Biso 1.0 Rb
Rb19 1.0000000000 0.0287737502 0.0796079528 0.5038110254  Biso 1.0 Rb
Rb20 1.0000000000 0.4797073668 0.5760655324 0.5047876580  Biso 1.0 Rb
