# AFLOW.org Repositories
# Ca8F24Rb8
data_Ca8F24Rb8
_pd_phase_name Ca8F24Rb8
_cell_length_a  9.0004547500
_cell_length_b  9.0051397322
_cell_length_c  8.9982199685
_cell_angle_alpha  89.8651336709
_cell_angle_beta  89.9562615319
_cell_angle_gamma  90.0447053401
_symmetry_space_group_name_H-M  'P1'
_symmetry_Int_Tables_Number  1
loop_
_symmetry_equiv_pos_site_id
_symmetry_equiv_pos_as_xyz
  1  x,y,z
loop_
 _atom_site_label
 _atom_site_occupancy
 _atom_site_fract_x
 _atom_site_fract_y
 _atom_site_fract_z
 _atom_site_thermal_displace_type
 _atom_site_B_iso_or_equiv
 _atom_site_type_symbol
Ca1 1.0000000000 0.2395087475 0.2506721077 0.2480011717  Biso 1.0 Ca
Ca2 1.0000000000 0.2392427555 0.2500212513 0.7481123715  Biso 1.0 Ca
Ca3 1.0000000000 0.7395183868 0.2508406664 0.2483667651  Biso 1.0 Ca
Ca4 1.0000000000 0.2401458698 0.7509600301 0.2482161015  Biso 1.0 Ca
Ca5 1.0000000000 0.7399588206 0.2502597615 0.7485170250  Biso 1.0 Ca
Ca6 1.0000000000 0.2398926205 0.7502653942 0.7484165581  Biso 1.0 Ca
Ca7 1.0000000000 0.7397358705 0.7512310577 0.2488042086  Biso 1.0 Ca
Ca8 1.0000000000 0.7403025079 0.7502999312 0.7484972555  Biso 1.0 Ca
F9 1.0000000000 0.2190810971 0.2723472614 0.9979723276  Biso 1.0 F
F10 1.0000000000 0.2590539401 0.2276064506 0.4980806764  Biso 1.0 F
F11 1.0000000000 0.7593756685 0.2615232378 0.9983515860  Biso 1.0 F
F12 1.0000000000 0.2610921249 0.7272981630 0.9982403037  Biso 1.0 F
F13 1.0000000000 0.7181167333 0.2408155245 0.4984261836  Biso 1.0 F
F14 1.0000000000 0.2190852461 0.7744053833 0.4984707547  Biso 1.0 F
F15 1.0000000000 0.7181398450 0.7387615633 0.9986452895  Biso 1.0 F
F16 1.0000000000 0.7631457936 0.7622678774 0.4986366103  Biso 1.0 F
F17 1.0000000000 0.9896239815 0.2566594748 0.2703371733  Biso 1.0 F
F18 1.0000000000 0.9895203207 0.2241552200 0.7307638249  Biso 1.0 F
F19 1.0000000000 0.4894250242 0.2458203888 0.2268193375  Biso 1.0 F
F20 1.0000000000 0.9901760011 0.7415980501 0.2269733128  Biso 1.0 F
F21 1.0000000000 0.4897461249 0.2738679262 0.7653335414  Biso 1.0 F
F22 1.0000000000 0.9901218560 0.7707336035 0.7726657262  Biso 1.0 F
F23 1.0000000000 0.4897055093 0.7607241385 0.2695541683  Biso 1.0 F
F24 1.0000000000 0.4901289633 0.7290589966 0.7252877429  Biso 1.0 F
F25 1.0000000000 0.2322136459 0.0009458905 0.2234851623  Biso 1.0 F
F26 1.0000000000 0.2627621790 0.9999679669 0.7700571645  Biso 1.0 F
F27 1.0000000000 0.7486333449 0.0009079322 0.2359221679  Biso 1.0 F
F28 1.0000000000 0.2470268671 0.5005996873 0.2715214256  Biso 1.0 F
F29 1.0000000000 0.7161886877 0.0002468047 0.7589926356  Biso 1.0 F
F30 1.0000000000 0.2169715408 0.5004550407 0.7262090890  Biso 1.0 F
F31 1.0000000000 0.7323470983 0.5011820471 0.2602946241  Biso 1.0 F
F32 1.0000000000 0.7641580663 0.5002418152 0.7379180496  Biso 1.0 F
Rb33 1.0000000000 0.9899148049 0.0047406591 0.9973546091  Biso 1.0 Rb
Rb34 1.0000000000 0.9888883540 0.0027290318 0.4944854721  Biso 1.0 Rb
Rb35 1.0000000000 0.4907829933 0.9974386365 0.0025662387  Biso 1.0 Rb
Rb36 1.0000000000 0.9887371994 0.5061463667 0.9953303948  Biso 1.0 Rb
Rb37 1.0000000000 0.4900643572 0.9956864944 0.5038036058  Biso 1.0 Rb
Rb38 1.0000000000 0.9891695948 0.5037123017 0.4932797055  Biso 1.0 Rb
Rb39 1.0000000000 0.4915180151 0.4983278223 0.9999822391  Biso 1.0 Rb
Rb40 1.0000000000 0.4896862051 0.4941774787 0.4994279892  Biso 1.0 Rb
