# AFLOW.org Repositories
# Cl24Ge8Rb8
data_Cl24Ge8Rb8
_pd_phase_name Cl24Ge8Rb8
_cell_length_a  10.9300375390
_cell_length_b  11.1430825320
_cell_length_c  11.1525774043
_cell_angle_alpha  86.2079070908
_cell_angle_beta  89.9856737809
_cell_angle_gamma  89.8377783177
_symmetry_space_group_name_H-M  'P1'
_symmetry_Int_Tables_Number  1
loop_
_symmetry_equiv_pos_site_id
_symmetry_equiv_pos_as_xyz
  1  x,y,z
loop_
 _atom_site_label
 _atom_site_occupancy
 _atom_site_fract_x
 _atom_site_fract_y
 _atom_site_fract_z
 _atom_site_thermal_displace_type
 _atom_site_B_iso_or_equiv
 _atom_site_type_symbol
Cl1 1.0000000000 0.9715943336 0.3142798533 0.2035840474  Biso 1.0 Cl
Cl2 1.0000000000 0.4703542624 0.1972845534 0.2778491444  Biso 1.0 Cl
Cl3 1.0000000000 0.0390621637 0.7230049462 0.3214121549  Biso 1.0 Cl
Cl4 1.0000000000 0.0315178638 0.1999700670 0.8078393690  Biso 1.0 Cl
Cl5 1.0000000000 0.5360056446 0.7866115853 0.1898823204  Biso 1.0 Cl
Cl6 1.0000000000 0.5365255654 0.2812949769 0.6821924407  Biso 1.0 Cl
Cl7 1.0000000000 0.9589877608 0.8104934259 0.7276438964  Biso 1.0 Cl
Cl8 1.0000000000 0.4586193740 0.6777358411 0.7925126528  Biso 1.0 Cl
Cl9 1.0000000000 0.2120284993 0.0298070053 0.2001481245  Biso 1.0 Cl
Cl10 1.0000000000 0.8005423286 0.0466976631 0.1909476565  Biso 1.0 Cl
Cl11 1.0000000000 0.2972501115 0.5295936008 0.3191957777  Biso 1.0 Cl
Cl12 1.0000000000 0.2975664267 0.0170771813 0.8036476859  Biso 1.0 Cl
Cl13 1.0000000000 0.7060131123 0.5359694617 0.2979062203  Biso 1.0 Cl
Cl14 1.0000000000 0.6926301470 0.9712908962 0.7952925032  Biso 1.0 Cl
Cl15 1.0000000000 0.1933441956 0.5213067027 0.7113289826  Biso 1.0 Cl
Cl16 1.0000000000 0.7992593268 0.4675402218 0.6822645182  Biso 1.0 Cl
Cl17 1.0000000000 0.2954411507 0.2952027736 0.0286034286  Biso 1.0 Cl
Cl18 1.0000000000 0.7089304597 0.3083847305 0.0132328355  Biso 1.0 Cl
Cl19 1.0000000000 0.1974286549 0.6845577639 0.9762460187  Biso 1.0 Cl
Cl20 1.0000000000 0.2039543614 0.1879956908 0.5407733443  Biso 1.0 Cl
Cl21 1.0000000000 0.8014914780 0.7035227000 0.0368583612  Biso 1.0 Cl
Cl22 1.0000000000 0.7999314259 0.2071594326 0.5163192925  Biso 1.0 Cl
Cl23 1.0000000000 0.3055717928 0.7942549636 0.4772346334  Biso 1.0 Cl
Cl24 1.0000000000 0.7039491227 0.8095060123 0.5334880752  Biso 1.0 Cl
Ge25 1.0000000000 0.2581153239 0.2342495473 0.2341720566  Biso 1.0 Ge
Ge26 1.0000000000 0.7619563606 0.2554510135 0.2199107277  Biso 1.0 Ge
Ge27 1.0000000000 0.2539030606 0.7403698723 0.2803478495  Biso 1.0 Ge
Ge28 1.0000000000 0.2408157746 0.2209822188 0.7501354799  Biso 1.0 Ge
Ge29 1.0000000000 0.7451490995 0.7411893897 0.2375911906  Biso 1.0 Ge
Ge30 1.0000000000 0.7521666480 0.2569872720 0.7167423106  Biso 1.0 Ge
Ge31 1.0000000000 0.2444987812 0.7190658380 0.7663313119  Biso 1.0 Ge
Ge32 1.0000000000 0.7439189361 0.7733182000 0.7449008571  Biso 1.0 Ge
Rb33 1.0000000000 0.0096328883 0.9468496875 0.9854828404  Biso 1.0 Rb
Rb34 1.0000000000 0.5087295144 0.0512158819 0.0234422600  Biso 1.0 Rb
Rb35 1.0000000000 0.9833138392 0.4705979179 0.9389971779  Biso 1.0 Rb
Rb36 1.0000000000 0.9912606486 0.9757093018 0.4648131189  Biso 1.0 Rb
Rb37 1.0000000000 0.4910430854 0.5248932866 0.0595384422  Biso 1.0 Rb
Rb38 1.0000000000 0.4908996041 0.0284788926 0.5400896841  Biso 1.0 Rb
Rb39 1.0000000000 0.0169933194 0.4475129609 0.4666297238  Biso 1.0 Rb
Rb40 1.0000000000 0.5135251713 0.5511232140 0.5352161857  Biso 1.0 Rb
