# AFLOW.org Repositories
# F24Ge8Rb8
data_F24Ge8Rb8
_pd_phase_name F24Ge8Rb8
_cell_length_a  9.6592452635
_cell_length_b  9.4682092287
_cell_length_c  9.9471218524
_cell_angle_alpha  88.0542776526
_cell_angle_beta  86.6677857018
_cell_angle_gamma  90.9401286481
_symmetry_space_group_name_H-M  'P1'
_symmetry_Int_Tables_Number  1
loop_
_symmetry_equiv_pos_site_id
_symmetry_equiv_pos_as_xyz
  1  x,y,z
loop_
 _atom_site_label
 _atom_site_occupancy
 _atom_site_fract_x
 _atom_site_fract_y
 _atom_site_fract_z
 _atom_site_thermal_displace_type
 _atom_site_B_iso_or_equiv
 _atom_site_type_symbol
F1 1.0000000000 0.1797282394 0.0648629103 0.8046568176  Biso 1.0 F
F2 1.0000000000 0.3670735671 0.5763393204 0.7206732980  Biso 1.0 F
F3 1.0000000000 0.7735785794 0.8943664243 0.6301659206  Biso 1.0 F
F4 1.0000000000 0.2679549413 0.0667050054 0.1928913750  Biso 1.0 F
F5 1.0000000000 0.7385869299 0.4027343515 0.8621611598  Biso 1.0 F
F6 1.0000000000 0.2219908159 0.5687666136 0.3638146228  Biso 1.0 F
F7 1.0000000000 0.6537876977 0.0736850343 0.2392992764  Biso 1.0 F
F8 1.0000000000 0.8191138587 0.5632601972 0.2431489684  Biso 1.0 F
F9 1.0000000000 0.9185757582 0.2542242688 0.7002437310  Biso 1.0 F
F10 1.0000000000 0.9297447506 0.6741711981 0.7123598630  Biso 1.0 F
F11 1.0000000000 0.3991435486 0.2312119146 0.8706574931  Biso 1.0 F
F12 1.0000000000 0.0665851615 0.2107182223 0.3263782062  Biso 1.0 F
F13 1.0000000000 0.4389322085 0.8466529774 0.7680251588  Biso 1.0 F
F14 1.0000000000 0.0675205369 0.8041611417 0.3411879731  Biso 1.0 F
F15 1.0000000000 0.5605662339 0.3381760991 0.2036446458  Biso 1.0 F
F16 1.0000000000 0.5870760640 0.7049311551 0.1676680170  Biso 1.0 F
F17 1.0000000000 0.1396314811 0.3029118180 0.9459183473  Biso 1.0 F
F18 1.0000000000 0.2417357358 0.6995380980 0.9315487641  Biso 1.0 F
F19 1.0000000000 0.7661872054 0.1223893320 0.9136586623  Biso 1.0 F
F20 1.0000000000 0.3204117429 0.1989032531 0.4289184345  Biso 1.0 F
F21 1.0000000000 0.8453672442 0.7914379232 0.0761954617  Biso 1.0 F
F22 1.0000000000 0.3295254177 0.8163206505 0.4351022536  Biso 1.0 F
F23 1.0000000000 0.7063101255 0.2755972851 0.4182144364  Biso 1.0 F
F24 1.0000000000 0.7028018535 0.6250688303 0.5736382402  Biso 1.0 F
Ge25 1.0000000000 0.2337505024 0.2566744080 0.7829693931  Biso 1.0 Ge
Ge26 1.0000000000 0.2720848627 0.7466853602 0.7458642653  Biso 1.0 Ge
Ge27 1.0000000000 0.7319103140 0.2370215010 0.7630914223  Biso 1.0 Ge
Ge28 1.0000000000 0.2515117410 0.2495862086 0.2602659985  Biso 1.0 Ge
Ge29 1.0000000000 0.7410978052 0.7227576293 0.7287618516  Biso 1.0 Ge
Ge30 1.0000000000 0.2463498683 0.7521303582 0.2822572451  Biso 1.0 Ge
Ge31 1.0000000000 0.7325810752 0.2579915814 0.2303290132  Biso 1.0 Ge
Ge32 1.0000000000 0.7547179811 0.7505793817 0.2460992993  Biso 1.0 Ge
Rb33 1.0000000000 0.0100268030 0.0363285577 0.0504365803  Biso 1.0 Rb
Rb34 1.0000000000 0.9705674804 0.5383511998 0.9791694532  Biso 1.0 Rb
Rb35 1.0000000000 0.4978452164 0.9803431999 0.0151040892  Biso 1.0 Rb
Rb36 1.0000000000 0.0460243435 0.0008483485 0.5500090236  Biso 1.0 Rb
Rb37 1.0000000000 0.4769832863 0.5069623515 0.9836038025  Biso 1.0 Rb
Rb38 1.0000000000 0.9567792753 0.4780962571 0.4835547524  Biso 1.0 Rb
Rb39 1.0000000000 0.5373893794 0.0089266126 0.5054301844  Biso 1.0 Rb
Rb40 1.0000000000 0.4785266232 0.4782459719 0.4687507577  Biso 1.0 Rb
