# AFLOW.org Repositories
# Br24Ge8Rb8
data_Br24Ge8Rb8
_pd_phase_name Br24Ge8Rb8
_cell_length_a  11.4769202930
_cell_length_b  11.4342720156
_cell_length_c  11.5150465087
_cell_angle_alpha  88.8459063558
_cell_angle_beta  86.4917716842
_cell_angle_gamma  90.4612185246
_symmetry_space_group_name_H-M  'P1'
_symmetry_Int_Tables_Number  1
loop_
_symmetry_equiv_pos_site_id
_symmetry_equiv_pos_as_xyz
  1  x,y,z
loop_
 _atom_site_label
 _atom_site_occupancy
 _atom_site_fract_x
 _atom_site_fract_y
 _atom_site_fract_z
 _atom_site_thermal_displace_type
 _atom_site_B_iso_or_equiv
 _atom_site_type_symbol
Br1 1.0000000000 0.2798996502 0.9803610017 0.2044981375  Biso 1.0 Br
Br2 1.0000000000 0.1915648374 0.4836389421 0.3012534831  Biso 1.0 Br
Br3 1.0000000000 0.2191859090 0.0237141929 0.7764450796  Biso 1.0 Br
Br4 1.0000000000 0.7036369752 0.9924147547 0.3026260203  Biso 1.0 Br
Br5 1.0000000000 0.3148963849 0.5237559662 0.7146523220  Biso 1.0 Br
Br6 1.0000000000 0.7845847010 0.4962908459 0.2240365207  Biso 1.0 Br
Br7 1.0000000000 0.8018854861 0.9888688419 0.7085382221  Biso 1.0 Br
Br8 1.0000000000 0.7429915942 0.4821287195 0.7948720758  Biso 1.0 Br
Br9 1.0000000000 0.2050462439 0.3050764217 0.0236774628  Biso 1.0 Br
Br10 1.0000000000 0.2036250118 0.7242593494 0.0134198007  Biso 1.0 Br
Br11 1.0000000000 0.3106823396 0.2121776273 0.5140866730  Biso 1.0 Br
Br12 1.0000000000 0.8068824086 0.2163513268 0.9873275238  Biso 1.0 Br
Br13 1.0000000000 0.3130879814 0.7926771162 0.5087366216  Biso 1.0 Br
Br14 1.0000000000 0.8107173269 0.7998458299 0.9883519132  Biso 1.0 Br
Br15 1.0000000000 0.6907657771 0.3001765807 0.4840722666  Biso 1.0 Br
Br16 1.0000000000 0.6908924761 0.7156767734 0.4971996605  Biso 1.0 Br
Br17 1.0000000000 0.0079882460 0.2055464477 0.2891563745  Biso 1.0 Br
Br18 1.0000000000 0.9693772334 0.7917401283 0.3114792437  Biso 1.0 Br
Br19 1.0000000000 0.0317576076 0.2823006120 0.6894360129  Biso 1.0 Br
Br20 1.0000000000 0.5162552897 0.2978053775 0.2080063127  Biso 1.0 Br
Br21 1.0000000000 0.0405950340 0.7075475781 0.6993110533  Biso 1.0 Br
Br22 1.0000000000 0.4748238121 0.7108917500 0.1899542426  Biso 1.0 Br
Br23 1.0000000000 0.5308525521 0.2183516565 0.8178214573  Biso 1.0 Br
Br24 1.0000000000 0.5388114992 0.8018594881 0.8169939566  Biso 1.0 Br
Ge25 1.0000000000 0.2197876962 0.2702976625 0.2437734356  Biso 1.0 Ge
Ge26 1.0000000000 0.2566825472 0.7561204594 0.2231460978  Biso 1.0 Ge
Ge27 1.0000000000 0.2450744485 0.2431709161 0.7270950946  Biso 1.0 Ge
Ge28 1.0000000000 0.7306368076 0.2804791922 0.2619291450  Biso 1.0 Ge
Ge29 1.0000000000 0.2587848199 0.7399621372 0.7228248603  Biso 1.0 Ge
Ge30 1.0000000000 0.7494624514 0.7734672888 0.2857004959  Biso 1.0 Ge
Ge31 1.0000000000 0.7511869383 0.2569634950 0.7783903444  Biso 1.0 Ge
Ge32 1.0000000000 0.7592565399 0.7774277803 0.7760367717  Biso 1.0 Ge
Rb33 1.0000000000 0.0339676017 0.0085703886 0.0348839308  Biso 1.0 Rb
Rb34 1.0000000000 0.9818926753 0.5105853357 0.9738286343  Biso 1.0 Rb
Rb35 1.0000000000 0.0628553763 0.9977755162 0.5176596396  Biso 1.0 Rb
Rb36 1.0000000000 0.5527817127 0.0050160236 0.0448128220  Biso 1.0 Rb
Rb37 1.0000000000 0.9349986293 0.5074850527 0.4916296537  Biso 1.0 Rb
Rb38 1.0000000000 0.4733620726 0.4985970859 0.9678122161  Biso 1.0 Rb
Rb39 1.0000000000 0.5344497394 0.0075715318 0.5687010458  Biso 1.0 Rb
Rb40 1.0000000000 0.4650580347 0.5072140679 0.4387864114  Biso 1.0 Rb
