# AFLOW.org Repositories
# Cl3Mg1Rb1
data_Cl3Mg1Rb1
_pd_phase_name Cl3Mg1Rb1
_cell_length_a  5.0613434550
_cell_length_b  5.0613434550
_cell_length_c  5.0613434550
_cell_angle_alpha  90.0000000000
_cell_angle_beta  90.0000000000
_cell_angle_gamma  90.0000000000
_symmetry_space_group_name_H-M  'P1'
_symmetry_Int_Tables_Number  1
loop_
_symmetry_equiv_pos_site_id
_symmetry_equiv_pos_as_xyz
  1  x,y,z
loop_
 _atom_site_label
 _atom_site_occupancy
 _atom_site_fract_x
 _atom_site_fract_y
 _atom_site_fract_z
 _atom_site_thermal_displace_type
 _atom_site_B_iso_or_equiv
 _atom_site_type_symbol
Cl1 1.0000000000 0.5000000242 0.0000000000 0.4999999827  Biso 1.0 Cl
Cl2 1.0000000000 0.5000000005 0.4999999926 0.0000000000  Biso 1.0 Cl
Cl3 1.0000000000 0.9999999951 0.4999999946 0.4999999807  Biso 1.0 Cl
Mg4 1.0000000000 0.5000000163 0.5000000005 0.5000000044  Biso 1.0 Mg
Rb5 1.0000000000 0.0000000000 0.9999999970 0.0000000000  Biso 1.0 Rb
