# AFLOW.org Repositories
# Br24Mg8Rb8
data_Br24Mg8Rb8
_pd_phase_name Br24Mg8Rb8
_cell_length_a  10.9288589040
_cell_length_b  10.6768589624
_cell_length_c  10.6819357202
_cell_angle_alpha  89.9926992805
_cell_angle_beta  89.9631575329
_cell_angle_gamma  90.0750703384
_symmetry_space_group_name_H-M  'P1'
_symmetry_Int_Tables_Number  1
loop_
_symmetry_equiv_pos_site_id
_symmetry_equiv_pos_as_xyz
  1  x,y,z
loop_
 _atom_site_label
 _atom_site_occupancy
 _atom_site_fract_x
 _atom_site_fract_y
 _atom_site_fract_z
 _atom_site_thermal_displace_type
 _atom_site_B_iso_or_equiv
 _atom_site_type_symbol
Br1 1.0000000000 0.2565018961 0.0006823782 0.7913748050  Biso 1.0 Br
Br2 1.0000000000 0.2487048061 0.5010617528 0.7108668720  Biso 1.0 Br
Br3 1.0000000000 0.7481540013 0.0009932292 0.7158121865  Biso 1.0 Br
Br4 1.0000000000 0.2563966014 0.0007390775 0.2115821612  Biso 1.0 Br
Br5 1.0000000000 0.7566174272 0.5006053189 0.7847122349  Biso 1.0 Br
Br6 1.0000000000 0.2491551405 0.5008431590 0.2908516012  Biso 1.0 Br
Br7 1.0000000000 0.7470422317 0.0006052103 0.2859702227  Biso 1.0 Br
Br8 1.0000000000 0.7552812880 0.5007477054 0.2166049542  Biso 1.0 Br
Br9 1.0000000000 0.0020837658 0.2458682326 0.7432178132  Biso 1.0 Br
Br10 1.0000000000 0.0019649349 0.7552417528 0.7522271326  Biso 1.0 Br
Br11 1.0000000000 0.5020978126 0.2550803551 0.7577215714  Biso 1.0 Br
Br12 1.0000000000 0.0023337708 0.2459633414 0.2575324289  Biso 1.0 Br
Br13 1.0000000000 0.5021445037 0.7460453006 0.7511536968  Biso 1.0 Br
Br14 1.0000000000 0.0025002199 0.7534647853 0.2498044571  Biso 1.0 Br
Br15 1.0000000000 0.5024430091 0.2553402187 0.2432636936  Biso 1.0 Br
Br16 1.0000000000 0.5019158558 0.7474455936 0.2520273356  Biso 1.0 Br
Br17 1.0000000000 0.2463175199 0.2905962724 0.0008376265  Biso 1.0 Br
Br18 1.0000000000 0.2504060127 0.7105299972 0.0008339642  Biso 1.0 Br
Br19 1.0000000000 0.7608791407 0.2159903031 0.0007925953  Biso 1.0 Br
Br20 1.0000000000 0.2576755243 0.2108898906 0.5007069917  Biso 1.0 Br
Br21 1.0000000000 0.7511686015 0.7859199475 0.0007202385  Biso 1.0 Br
Br22 1.0000000000 0.2518190680 0.7903978304 0.5016047805  Biso 1.0 Br
Br23 1.0000000000 0.7450665577 0.2855350125 0.5007041532  Biso 1.0 Br
Br24 1.0000000000 0.7532452179 0.7162321017 0.5013466689  Biso 1.0 Br
Mg25 1.0000000000 0.2520096049 0.2506371691 0.7506851814  Biso 1.0 Mg
Mg26 1.0000000000 0.2518510878 0.7506826638 0.7513719644  Biso 1.0 Mg
Mg27 1.0000000000 0.7520448324 0.2503878355 0.7505081488  Biso 1.0 Mg
Mg28 1.0000000000 0.2524908133 0.2509902985 0.2507845344  Biso 1.0 Mg
Mg29 1.0000000000 0.7521332661 0.7507741485 0.7508625762  Biso 1.0 Mg
Mg30 1.0000000000 0.2522058892 0.7506453908 0.2512212690  Biso 1.0 Mg
Mg31 1.0000000000 0.7523676083 0.2504332837 0.2507068069  Biso 1.0 Mg
Mg32 1.0000000000 0.7522610248 0.7505838222 0.2507317471  Biso 1.0 Mg
Rb33 1.0000000000 0.0047344610 0.9985476536 0.0006545987  Biso 1.0 Rb
Rb34 1.0000000000 0.0007081709 0.4998508498 0.9996534968  Biso 1.0 Rb
Rb35 1.0000000000 0.5073582391 0.0036867042 0.0017681752  Biso 1.0 Rb
Rb36 1.0000000000 0.0002414977 0.9995727984 0.5014408326  Biso 1.0 Rb
Rb37 1.0000000000 0.5033192394 0.5025538492 0.0006324988  Biso 1.0 Rb
Rb38 1.0000000000 0.9973128240 0.4985934128 0.5008582283  Biso 1.0 Rb
Rb39 1.0000000000 0.5023552710 0.9996953347 0.5008123172  Biso 1.0 Rb
Rb40 1.0000000000 0.5009857069 0.5024532900 0.5022164244  Biso 1.0 Rb
