# AFLOW.org Repositories
# Br12Pb4Rb4
data_Br12Pb4Rb4
_pd_phase_name Br12Pb4Rb4
_cell_length_a  8.0383194947
_cell_length_b  8.4923299010
_cell_length_c  11.6415140091
_cell_angle_alpha  89.9932346859
_cell_angle_beta  89.9793141170
_cell_angle_gamma  90.0050307461
_symmetry_space_group_name_H-M  'P1'
_symmetry_Int_Tables_Number  1
loop_
_symmetry_equiv_pos_site_id
_symmetry_equiv_pos_as_xyz
  1  x,y,z
loop_
 _atom_site_label
 _atom_site_occupancy
 _atom_site_fract_x
 _atom_site_fract_y
 _atom_site_fract_z
 _atom_site_thermal_displace_type
 _atom_site_B_iso_or_equiv
 _atom_site_type_symbol
Br1 1.0000000000 0.6167724473 0.9729111149 0.0021550918  Biso 1.0 Br
Br2 1.0000000000 0.4015917069 0.0329384497 0.5020751038  Biso 1.0 Br
Br3 1.0000000000 0.9030802768 0.4703028334 0.0015332696  Biso 1.0 Br
Br4 1.0000000000 0.1204075821 0.5324155423 0.5015208780  Biso 1.0 Br
Br5 1.0000000000 0.8166252215 0.2012356372 0.6962400734  Biso 1.0 Br
Br6 1.0000000000 0.8134554981 0.2033281620 0.3071600409  Biso 1.0 Br
Br7 1.0000000000 0.2027023273 0.8039340925 0.8065238222  Biso 1.0 Br
Br8 1.0000000000 0.2032529579 0.8027719043 0.1971257587  Biso 1.0 Br
Br9 1.0000000000 0.7045603774 0.7006270720 0.6987047056  Biso 1.0 Br
Br10 1.0000000000 0.7038088588 0.7009549151 0.3068253470  Biso 1.0 Br
Br11 1.0000000000 0.3170861776 0.3024297987 0.8057204993  Biso 1.0 Br
Br12 1.0000000000 0.3161681594 0.3025324911 0.1959376612  Biso 1.0 Br
Pb13 1.0000000000 0.5092713506 0.0023527475 0.7523185172  Biso 1.0 Pb
Pb14 1.0000000000 0.5085765769 0.0023486903 0.2522613513  Biso 1.0 Pb
Pb15 1.0000000000 0.0099538113 0.5018602588 0.7508116488  Biso 1.0 Pb
Pb16 1.0000000000 0.0098171819 0.5018080688 0.2516662100  Biso 1.0 Pb
Rb17 1.0000000000 0.0371166232 0.0777755995 0.0007262619  Biso 1.0 Rb
Rb18 1.0000000000 0.9831125332 0.9261483834 0.4991040911  Biso 1.0 Rb
Rb19 1.0000000000 0.4826422966 0.5791333213 0.0005333191  Biso 1.0 Rb
Rb20 1.0000000000 0.5411700066 0.4248694729 0.5028335945  Biso 1.0 Rb
