# AFLOW.org Repositories
# F12Pb4Rb4
data_F12Pb4Rb4
_pd_phase_name F12Pb4Rb4
_cell_length_a  6.8413214279
_cell_length_b  6.6878379722
_cell_length_c  9.5261076723
_cell_angle_alpha  90.0033591646
_cell_angle_beta  90.0070754956
_cell_angle_gamma  89.9910566602
_symmetry_space_group_name_H-M  'P1'
_symmetry_Int_Tables_Number  1
loop_
_symmetry_equiv_pos_site_id
_symmetry_equiv_pos_as_xyz
  1  x,y,z
loop_
 _atom_site_label
 _atom_site_occupancy
 _atom_site_fract_x
 _atom_site_fract_y
 _atom_site_fract_z
 _atom_site_thermal_displace_type
 _atom_site_B_iso_or_equiv
 _atom_site_type_symbol
F1 1.0000000000 0.6982554583 0.3015517979 0.6992116638  Biso 1.0 F
F2 1.0000000000 0.2858602759 0.7099814915 0.7982753414  Biso 1.0 F
F3 1.0000000000 0.6992126446 0.2992288806 0.2969666865  Biso 1.0 F
F4 1.0000000000 0.2859483292 0.7082546311 0.1955215728  Biso 1.0 F
F5 1.0000000000 0.9562746224 0.4098219414 0.9976967608  Biso 1.0 F
F6 1.0000000000 0.4529363537 0.1005725961 0.9970081467  Biso 1.0 F
F7 1.0000000000 0.0318180584 0.5985394986 0.4974380005  Biso 1.0 F
F8 1.0000000000 0.5323107201 0.9127465581 0.4971008661  Biso 1.0 F
F9 1.0000000000 0.2012548765 0.2112552774 0.6973939559  Biso 1.0 F
F10 1.0000000000 0.7874343391 0.8009506894 0.7974265660  Biso 1.0 F
F11 1.0000000000 0.2002500315 0.2086313742 0.2978668517  Biso 1.0 F
F12 1.0000000000 0.7865994109 0.7997804177 0.1971495058  Biso 1.0 F
Pb13 1.0000000000 0.9934117201 0.5053851598 0.7476762192  Biso 1.0 Pb
Pb14 1.0000000000 0.4934007005 0.0051994449 0.7473486911  Biso 1.0 Pb
Pb15 1.0000000000 0.9934079597 0.5041029198 0.2470189563  Biso 1.0 Pb
Pb16 1.0000000000 0.4932693877 0.0043932718 0.2465352855  Biso 1.0 Pb
Rb17 1.0000000000 0.0383562838 0.9913362304 0.9985979450  Biso 1.0 Rb
Rb18 1.0000000000 0.5363339040 0.5140260152 0.9957530284  Biso 1.0 Rb
Rb19 1.0000000000 0.9493162551 0.0172676889 0.4975024423  Biso 1.0 Rb
Rb20 1.0000000000 0.4495421523 0.4936006173 0.4974583873  Biso 1.0 Rb
