# AFLOW.org Repositories
# I12Pb4Rb4
data_I12Pb4Rb4
_pd_phase_name I12Pb4Rb4
_cell_length_a  8.5391860291
_cell_length_b  9.0492705559
_cell_length_c  12.3717637874
_cell_angle_alpha  90.0042183969
_cell_angle_beta  89.9312207863
_cell_angle_gamma  90.0047617601
_symmetry_space_group_name_H-M  'P1'
_symmetry_Int_Tables_Number  1
loop_
_symmetry_equiv_pos_site_id
_symmetry_equiv_pos_as_xyz
  1  x,y,z
loop_
 _atom_site_label
 _atom_site_occupancy
 _atom_site_fract_x
 _atom_site_fract_y
 _atom_site_fract_z
 _atom_site_thermal_displace_type
 _atom_site_B_iso_or_equiv
 _atom_site_type_symbol
I1 1.0000000000 0.8104398916 0.8062131344 0.3079565285  Biso 1.0 I
I2 1.0000000000 0.1921398090 0.1994220286 0.1956263791  Biso 1.0 I
I3 1.0000000000 0.8071039167 0.8033467832 0.6954257790  Biso 1.0 I
I4 1.0000000000 0.1884388911 0.1961438056 0.8080641954  Biso 1.0 I
I5 1.0000000000 0.6902110003 0.3064211182 0.3115269163  Biso 1.0 I
I6 1.0000000000 0.3127062415 0.6963265205 0.1978289545  Biso 1.0 I
I7 1.0000000000 0.6900522937 0.3035898720 0.6992272405  Biso 1.0 I
I8 1.0000000000 0.3098791704 0.6958408463 0.8070691536  Biso 1.0 I
I9 1.0000000000 0.6147499165 0.0287101091 0.0034033737  Biso 1.0 I
I10 1.0000000000 0.8841971297 0.5294038865 0.0027950535  Biso 1.0 I
I11 1.0000000000 0.3841848562 0.9744240771 0.5033699927  Biso 1.0 I
I12 1.0000000000 0.1116515910 0.4755110608 0.5028204093  Biso 1.0 I
Pb13 1.0000000000 0.5003110341 0.0028407368 0.2534116912  Biso 1.0 Pb
Pb14 1.0000000000 0.0000345365 0.5020313467 0.2531229630  Biso 1.0 Pb
Pb15 1.0000000000 0.4982376171 1.0002786203 0.7535725096  Biso 1.0 Pb
Pb16 1.0000000000 0.9982143473 0.5005004898 0.7530129834  Biso 1.0 Pb
Rb17 1.0000000000 0.0329129269 0.9120598861 0.0063491695  Biso 1.0 Rb
Rb18 1.0000000000 0.4677118328 0.4146555617 0.0010179179  Biso 1.0 Rb
Rb19 1.0000000000 0.9667787313 0.0873626769 0.5037147542  Biso 1.0 Rb
Rb20 1.0000000000 0.5312627662 0.5873619085 0.5068595881  Biso 1.0 Rb
