# AFLOW.org Repositories
# Cl12Pb4Rb4
data_Cl12Pb4Rb4
_pd_phase_name Cl12Pb4Rb4
_cell_length_a  7.7265946023
_cell_length_b  8.0940240958
_cell_length_c  11.1104944127
_cell_angle_alpha  90.0000067000
_cell_angle_beta  89.9848831978
_cell_angle_gamma  90.0387369071
_symmetry_space_group_name_H-M  'P1'
_symmetry_Int_Tables_Number  1
loop_
_symmetry_equiv_pos_site_id
_symmetry_equiv_pos_as_xyz
  1  x,y,z
loop_
 _atom_site_label
 _atom_site_occupancy
 _atom_site_fract_x
 _atom_site_fract_y
 _atom_site_fract_z
 _atom_site_thermal_displace_type
 _atom_site_B_iso_or_equiv
 _atom_site_type_symbol
Cl1 1.0000000000 0.7026080020 0.3029778022 0.8055796574  Biso 1.0 Cl
Cl2 1.0000000000 0.3047218532 0.7081203535 0.6954795714  Biso 1.0 Cl
Cl3 1.0000000000 0.7019466414 0.3034175998 0.1941039054  Biso 1.0 Cl
Cl4 1.0000000000 0.3043557624 0.7086730789 0.3055708496  Biso 1.0 Cl
Cl5 1.0000000000 0.1123727453 0.4688295969 0.0012332205  Biso 1.0 Cl
Cl6 1.0000000000 0.3989357450 0.9719594699 0.0015187673  Biso 1.0 Cl
Cl7 1.0000000000 0.9004252942 0.5373463618 0.5012187605  Biso 1.0 Cl
Cl8 1.0000000000 0.6113449514 0.0436332389 0.5013729481  Biso 1.0 Cl
Cl9 1.0000000000 0.2019356636 0.2071663349 0.6973762149  Biso 1.0 Cl
Cl10 1.0000000000 0.8057988324 0.8021156872 0.8061288462  Biso 1.0 Cl
Cl11 1.0000000000 0.1994375312 0.2065801064 0.3056307001  Biso 1.0 Cl
Cl12 1.0000000000 0.8056800328 0.8037948577 0.1979933763  Biso 1.0 Cl
Pb13 1.0000000000 0.0052508040 0.5047808428 0.7515252009  Biso 1.0 Pb
Pb14 1.0000000000 0.5038273085 0.0055234958 0.7514659565  Biso 1.0 Pb
Pb15 1.0000000000 0.0046559607 0.5052428191 0.2506611717  Biso 1.0 Pb
Pb16 1.0000000000 0.5032811938 0.0065102274 0.2513154247  Biso 1.0 Pb
Rb17 1.0000000000 0.9793745474 0.0720285168 0.0007633720  Biso 1.0 Rb
Rb18 1.0000000000 0.5286031371 0.5750322359 0.0017529777  Biso 1.0 Rb
Rb19 1.0000000000 0.0245464751 0.9366591474 0.5020394457  Biso 1.0 Rb
Rb20 1.0000000000 0.4790839499 0.4377251534 0.5005134186  Biso 1.0 Rb
