# AFLOW.org Repositories
# F24Rb8Sn8
data_F24Rb8Sn8
_pd_phase_name F24Rb8Sn8
_cell_length_a  9.7935421092
_cell_length_b  9.0744041729
_cell_length_c  10.7360541833
_cell_angle_alpha  89.0706214276
_cell_angle_beta  88.4935419061
_cell_angle_gamma  88.9268230198
_symmetry_space_group_name_H-M  'P1'
_symmetry_Int_Tables_Number  1
loop_
_symmetry_equiv_pos_site_id
_symmetry_equiv_pos_as_xyz
  1  x,y,z
loop_
 _atom_site_label
 _atom_site_occupancy
 _atom_site_fract_x
 _atom_site_fract_y
 _atom_site_fract_z
 _atom_site_thermal_displace_type
 _atom_site_B_iso_or_equiv
 _atom_site_type_symbol
F1 1.0000000000 0.0720521318 0.2855837313 0.2059483345  Biso 1.0 F
F2 1.0000000000 0.5588367524 0.2196279533 0.3640184396  Biso 1.0 F
F3 1.0000000000 0.0596092199 0.6971677564 0.2136517331  Biso 1.0 F
F4 1.0000000000 0.9267190836 0.2296832632 0.8898915788  Biso 1.0 F
F5 1.0000000000 0.5566204475 0.7833438619 0.3569933406  Biso 1.0 F
F6 1.0000000000 0.4243713583 0.2612906241 0.6944253589  Biso 1.0 F
F7 1.0000000000 0.9393881513 0.7921068882 0.8903778239  Biso 1.0 F
F8 1.0000000000 0.4317820665 0.7143997413 0.6782536311  Biso 1.0 F
F9 1.0000000000 0.1889780021 0.9682056855 0.2786070622  Biso 1.0 F
F10 1.0000000000 0.7779080081 0.9884040048 0.2546697788  Biso 1.0 F
F11 1.0000000000 0.3090631259 0.4768739813 0.1786752722  Biso 1.0 F
F12 1.0000000000 0.2498653096 0.9730121618 0.6534849026  Biso 1.0 F
F13 1.0000000000 0.7259204419 0.4837296363 0.3449804316  Biso 1.0 F
F14 1.0000000000 0.7114303731 0.0293566603 0.7888549446  Biso 1.0 F
F15 1.0000000000 0.2349874109 0.4627299769 0.8277056138  Biso 1.0 F
F16 1.0000000000 0.7896448569 0.5260101217 0.8419464825  Biso 1.0 F
F17 1.0000000000 0.2556628863 0.1520505974 0.9093398197  Biso 1.0 F
F18 1.0000000000 0.6342632260 0.2766615226 0.9451313190  Biso 1.0 F
F19 1.0000000000 0.3159772090 0.7922289763 0.0823150060  Biso 1.0 F
F20 1.0000000000 0.2440210492 0.3248916642 0.4171786835  Biso 1.0 F
F21 1.0000000000 0.6412506868 0.7685379244 0.9390708867  Biso 1.0 F
F22 1.0000000000 0.8433017604 0.2180151249 0.4412012945  Biso 1.0 F
F23 1.0000000000 0.1427380743 0.6932467281 0.5911039099  Biso 1.0 F
F24 1.0000000000 0.8365398401 0.7592247373 0.4375676142  Biso 1.0 F
Rb25 1.0000000000 0.0232929319 0.0062113654 0.0558676621  Biso 1.0 Rb
Rb26 1.0000000000 0.4974514706 0.0185549823 -0.0044172656  Biso 1.0 Rb
Rb27 1.0000000000 0.0132968725 0.5030197761 0.0126727559  Biso 1.0 Rb
Rb28 1.0000000000 0.0163547376 0.9807962479 0.4873565030  Biso 1.0 Rb
Rb29 1.0000000000 0.4713036972 0.5304099772 0.9629498528  Biso 1.0 Rb
Rb30 1.0000000000 0.5277886004 0.9963223291 0.5493294125  Biso 1.0 Rb
Rb31 1.0000000000 0.9941180991 0.4887673080 0.4564705700  Biso 1.0 Rb
Rb32 1.0000000000 0.4837089561 0.4892175159 0.4999398723  Biso 1.0 Rb
Sn33 1.0000000000 0.2799359082 0.2524562225 0.2374044603  Biso 1.0 Sn
Sn34 1.0000000000 0.7466855399 0.2543678926 0.2730675451  Biso 1.0 Sn
Sn35 1.0000000000 0.2600078476 0.7410422526 0.2648805489  Biso 1.0 Sn
Sn36 1.0000000000 0.2166631090 0.2542500379 0.7397526889  Biso 1.0 Sn
Sn37 1.0000000000 0.7451107426 0.7478813226 0.2665273043  Biso 1.0 Sn
Sn38 1.0000000000 0.7547204785 0.2674777615 0.7840750263  Biso 1.0 Sn
Sn39 1.0000000000 0.2357935179 0.7657057573 0.7489651895  Biso 1.0 Sn
Sn40 1.0000000000 0.7698918430 0.7578098052 0.7839661457  Biso 1.0 Sn
