# AFLOW.org Repositories
# Cl24Rb8Sn8
data_Cl24Rb8Sn8
_pd_phase_name Cl24Rb8Sn8
_cell_length_a  11.1406948060
_cell_length_b  11.2829167338
_cell_length_c  11.2531054600
_cell_angle_alpha  86.8908918706
_cell_angle_beta  89.6838438633
_cell_angle_gamma  89.8496186293
_symmetry_space_group_name_H-M  'P1'
_symmetry_Int_Tables_Number  1
loop_
_symmetry_equiv_pos_site_id
_symmetry_equiv_pos_as_xyz
  1  x,y,z
loop_
 _atom_site_label
 _atom_site_occupancy
 _atom_site_fract_x
 _atom_site_fract_y
 _atom_site_fract_z
 _atom_site_thermal_displace_type
 _atom_site_B_iso_or_equiv
 _atom_site_type_symbol
Cl1 1.0000000000 0.0068875749 0.3300782236 0.2187930512  Biso 1.0 Cl
Cl2 1.0000000000 0.5087531037 0.1799114700 0.2894158914  Biso 1.0 Cl
Cl3 1.0000000000 0.0191356837 0.7213189602 0.3266235852  Biso 1.0 Cl
Cl4 1.0000000000 0.0139910846 0.2197038866 0.8271400317  Biso 1.0 Cl
Cl5 1.0000000000 0.5188981800 0.7809041205 0.1808637397  Biso 1.0 Cl
Cl6 1.0000000000 0.5126180485 0.2909002035 0.6900325645  Biso 1.0 Cl
Cl7 1.0000000000 0.9857655589 0.8246021570 0.7135796820  Biso 1.0 Cl
Cl8 1.0000000000 0.4864970610 0.6815911420 0.7975901876  Biso 1.0 Cl
Cl9 1.0000000000 0.1756543246 0.0323203130 0.2096107290  Biso 1.0 Cl
Cl10 1.0000000000 0.7911453913 0.9781014836 0.1923300549  Biso 1.0 Cl
Cl11 1.0000000000 0.2955237538 0.5256933780 0.3181695439  Biso 1.0 Cl
Cl12 1.0000000000 0.3085157399 0.9734612343 0.8146626008  Biso 1.0 Cl
Cl13 1.0000000000 0.6783216585 0.4711266773 0.2994218606  Biso 1.0 Cl
Cl14 1.0000000000 0.6989154382 0.0297663875 0.8011801414  Biso 1.0 Cl
Cl15 1.0000000000 0.1980274457 0.4790598485 0.7060988003  Biso 1.0 Cl
Cl16 1.0000000000 0.8078696271 0.5336362355 0.6985431623  Biso 1.0 Cl
Cl17 1.0000000000 0.2948686342 0.2994858550 0.9805394720  Biso 1.0 Cl
Cl18 1.0000000000 0.6826005211 0.3031625323 0.9811191036  Biso 1.0 Cl
Cl19 1.0000000000 0.1996414363 0.7003692185 0.0426666803  Biso 1.0 Cl
Cl20 1.0000000000 0.1771151554 0.2053839573 0.4838813202  Biso 1.0 Cl
Cl21 1.0000000000 0.8103748646 0.7070601812 0.9735570303  Biso 1.0 Cl
Cl22 1.0000000000 0.7846906570 0.1996569220 0.4867062899  Biso 1.0 Cl
Cl23 1.0000000000 0.3133453614 0.8021411762 0.5367671274  Biso 1.0 Cl
Cl24 1.0000000000 0.6967864548 0.8016384054 0.4675082186  Biso 1.0 Cl
Rb25 1.0000000000 0.0048542608 0.9561266430 0.9770709613  Biso 1.0 Rb
Rb26 1.0000000000 0.5035707525 0.0465502884 0.0292665980  Biso 1.0 Rb
Rb27 1.0000000000 0.0066868705 0.4819746115 0.9550267658  Biso 1.0 Rb
Rb28 1.0000000000 0.9847049029 0.9797061388 0.4530747731  Biso 1.0 Rb
Rb29 1.0000000000 0.4831479826 0.5188993766 0.0543489939  Biso 1.0 Rb
Rb30 1.0000000000 0.5098371094 0.0277391980 0.5538282468  Biso 1.0 Rb
Rb31 1.0000000000 0.0001676418 0.4609313432 0.4805077155  Biso 1.0 Rb
Rb32 1.0000000000 0.5050212282 0.5518861089 0.5322226997  Biso 1.0 Rb
Sn33 1.0000000000 0.2276776951 0.2515347091 0.2568839976  Biso 1.0 Sn
Sn34 1.0000000000 0.7340793164 0.2498797285 0.2602743159  Biso 1.0 Sn
Sn35 1.0000000000 0.2468997398 0.7489852677 0.2648905380  Biso 1.0 Sn
Sn36 1.0000000000 0.2407183312 0.2538412733 0.7597498389  Biso 1.0 Sn
Sn37 1.0000000000 0.7452602426 0.7540241800 0.2440724804  Biso 1.0 Sn
Sn38 1.0000000000 0.7374760009 0.2583589564 0.7591284216  Biso 1.0 Sn
Sn39 1.0000000000 0.2637025167 0.7536042890 0.7624558104  Biso 1.0 Sn
Sn40 1.0000000000 0.7622034668 0.7543529599 0.7484437106  Biso 1.0 Sn
