# AFLOW.org Repositories
# F12Rb4Sr4
data_F12Rb4Sr4
_pd_phase_name F12Rb4Sr4
_cell_length_a  6.7254989319
_cell_length_b  6.6080157822
_cell_length_c  9.4050374093
_cell_angle_alpha  89.9885307957
_cell_angle_beta  90.0103161151
_cell_angle_gamma  90.0551083500
_symmetry_space_group_name_H-M  'P1'
_symmetry_Int_Tables_Number  1
loop_
_symmetry_equiv_pos_site_id
_symmetry_equiv_pos_as_xyz
  1  x,y,z
loop_
 _atom_site_label
 _atom_site_occupancy
 _atom_site_fract_x
 _atom_site_fract_y
 _atom_site_fract_z
 _atom_site_thermal_displace_type
 _atom_site_B_iso_or_equiv
 _atom_site_type_symbol
F1 1.0000000000 0.2951425316 0.7072381724 0.7010596835  Biso 1.0 F
F2 1.0000000000 0.7128390351 0.2924713361 0.7940482003  Biso 1.0 F
F3 1.0000000000 0.2958345032 0.7071519575 0.2932946314  Biso 1.0 F
F4 1.0000000000 0.7148299489 0.2908866998 0.1993670281  Biso 1.0 F
F5 1.0000000000 0.2112104144 0.2066638870 0.7915298709  Biso 1.0 F
F6 1.0000000000 0.7942973158 0.7926529031 0.7029925355  Biso 1.0 F
F7 1.0000000000 0.2125639879 0.2079661919 0.2030647948  Biso 1.0 F
F8 1.0000000000 0.7946769010 0.7929980254 0.2934267686  Biso 1.0 F
F9 1.0000000000 0.5336416130 0.9149600734 0.9975941086  Biso 1.0 F
F10 1.0000000000 0.0386012066 0.5848612726 0.9976076244  Biso 1.0 F
F11 1.0000000000 0.4714538115 0.0868866675 0.4976467771  Biso 1.0 F
F12 1.0000000000 0.9704345105 0.4145116930 0.4977244534  Biso 1.0 F
Rb13 1.0000000000 0.9633770494 0.0108451294 0.9981457669  Biso 1.0 Rb
Rb14 1.0000000000 0.4637965553 0.4904744251 0.9977777041  Biso 1.0 Rb
Rb15 1.0000000000 0.0417931685 0.9914453347 0.4982632966  Biso 1.0 Rb
Rb16 1.0000000000 0.5425224068 0.5108429378 0.4990187076  Biso 1.0 Rb
Sr17 1.0000000000 0.5031127320 1.0006568081 0.7476303341  Biso 1.0 Sr
Sr18 1.0000000000 0.0035620836 0.5004756355 0.7476635012  Biso 1.0 Sr
Sr19 1.0000000000 0.5034236123 0.0006959234 0.2476602840  Biso 1.0 Sr
Sr20 1.0000000000 0.0037221327 0.5007943331 0.2478326297  Biso 1.0 Sr
