# AFLOW.org Repositories
# I24Rb8Sr8
data_I24Rb8Sr8
_pd_phase_name I24Rb8Sr8
_cell_length_a  12.4899992910
_cell_length_b  12.5606993780
_cell_length_c  12.5681365055
_cell_angle_alpha  86.7615661908
_cell_angle_beta  89.9821321758
_cell_angle_gamma  90.0462996746
_symmetry_space_group_name_H-M  'P1'
_symmetry_Int_Tables_Number  1
loop_
_symmetry_equiv_pos_site_id
_symmetry_equiv_pos_as_xyz
  1  x,y,z
loop_
 _atom_site_label
 _atom_site_occupancy
 _atom_site_fract_x
 _atom_site_fract_y
 _atom_site_fract_z
 _atom_site_thermal_displace_type
 _atom_site_B_iso_or_equiv
 _atom_site_type_symbol
I1 1.0000000000 0.1808039980 0.0007190668 0.7931312846  Biso 1.0 I
I2 1.0000000000 0.3001401308 0.5055453503 0.6832877090  Biso 1.0 I
I3 1.0000000000 0.7995406312 0.9975167188 0.7984068722  Biso 1.0 I
I4 1.0000000000 0.3055525872 0.0048970846 0.1821062223  Biso 1.0 I
I5 1.0000000000 0.6814674228 0.5041559045 0.6855613303  Biso 1.0 I
I6 1.0000000000 0.1879869250 0.4989697214 0.2953760974  Biso 1.0 I
I7 1.0000000000 0.6879385849 0.0025209995 0.1871154136  Biso 1.0 I
I8 1.0000000000 0.8065674064 0.4966918031 0.2967245586  Biso 1.0 I
I9 1.0000000000 0.9918342684 0.2930349020 0.6637632987  Biso 1.0 I
I10 1.0000000000 0.9950122226 0.6763521336 0.7815190142  Biso 1.0 I
I11 1.0000000000 0.4921720703 0.2108603760 0.8114676607  Biso 1.0 I
I12 1.0000000000 0.9953873600 0.1761454139 0.2804476617  Biso 1.0 I
I13 1.0000000000 0.4941841039 0.8274711706 0.7003934540  Biso 1.0 I
I14 1.0000000000 0.9955229515 0.7919189780 0.1670267227  Biso 1.0 I
I15 1.0000000000 0.4954189508 0.3252552317 0.1988643369  Biso 1.0 I
I16 1.0000000000 0.4960459540 0.7089588404 0.3167084971  Biso 1.0 I
I17 1.0000000000 0.1866795080 0.3091990812 0.9869437153  Biso 1.0 I
I18 1.0000000000 0.3056977503 0.6990842765 0.9928375895  Biso 1.0 I
I19 1.0000000000 0.8027744326 0.3060950950 0.9865285788  Biso 1.0 I
I20 1.0000000000 0.3024867814 0.1964912909 0.4921935355  Biso 1.0 I
I21 1.0000000000 0.6881485182 0.6922771240 0.9945946324  Biso 1.0 I
I22 1.0000000000 0.1885378748 0.8095948799 0.4870188733  Biso 1.0 I
I23 1.0000000000 0.6859991993 0.1936072123 0.4925682466  Biso 1.0 I
I24 1.0000000000 0.8041921629 0.8036474929 0.4891216190  Biso 1.0 I
Rb25 1.0000000000 0.9948985838 0.0563536759 0.0155986872  Biso 1.0 Rb
Rb26 1.0000000000 0.9928965435 0.5269667837 0.0461435913  Biso 1.0 Rb
Rb27 1.0000000000 0.5023907258 0.9469669992 0.9647957309  Biso 1.0 Rb
Rb28 1.0000000000 0.9912791185 0.0267119644 0.5452135541  Biso 1.0 Rb
Rb29 1.0000000000 0.4910615976 0.4746243551 0.9346743088  Biso 1.0 Rb
Rb30 1.0000000000 0.9988330537 0.5591327203 0.5146379807  Biso 1.0 Rb
Rb31 1.0000000000 0.4932671803 0.9753960525 0.4353358098  Biso 1.0 Rb
Rb32 1.0000000000 0.4921887535 0.4444679111 0.4649657172  Biso 1.0 Rb
Sr33 1.0000000000 0.2414612151 0.2529794671 0.7388661075  Biso 1.0 Sr
Sr34 1.0000000000 0.2440349487 0.7537347998 0.7410273777  Biso 1.0 Sr
Sr35 1.0000000000 0.7428912753 0.2515353485 0.7393982015  Biso 1.0 Sr
Sr36 1.0000000000 0.2451425562 0.2510672172 0.2396504721  Biso 1.0 Sr
Sr37 1.0000000000 0.7440103003 0.7498362145 0.7416658092  Biso 1.0 Sr
Sr38 1.0000000000 0.2466396307 0.7520316424 0.2401876051  Biso 1.0 Sr
Sr39 1.0000000000 0.7453775698 0.2506495187 0.2397691550  Biso 1.0 Sr
Sr40 1.0000000000 0.7459726989 0.7491245144 0.2419621432  Biso 1.0 Sr
