# AFLOW.org Repositories
# Br12Rb4Sr4
data_Br12Rb4Sr4
_pd_phase_name Br12Rb4Sr4
_cell_length_a  8.1008938870
_cell_length_b  8.5039982507
_cell_length_c  11.6501407899
_cell_angle_alpha  89.9974244675
_cell_angle_beta  90.0087496557
_cell_angle_gamma  90.0085206801
_symmetry_space_group_name_H-M  'P1'
_symmetry_Int_Tables_Number  1
loop_
_symmetry_equiv_pos_site_id
_symmetry_equiv_pos_as_xyz
  1  x,y,z
loop_
 _atom_site_label
 _atom_site_occupancy
 _atom_site_fract_x
 _atom_site_fract_y
 _atom_site_fract_z
 _atom_site_thermal_displace_type
 _atom_site_B_iso_or_equiv
 _atom_site_type_symbol
Br1 1.0000000000 0.8951541050 0.4679772615 1.0001843411  Biso 1.0 Br
Br2 1.0000000000 0.1111110128 0.5433554642 0.5005267654  Biso 1.0 Br
Br3 1.0000000000 0.6109542053 0.9695582496 0.0013085138  Biso 1.0 Br
Br4 1.0000000000 0.3957748733 0.0437026694 0.5007322578  Biso 1.0 Br
Br5 1.0000000000 0.6998676998 0.7076842959 0.6953031156  Biso 1.0 Br
Br6 1.0000000000 0.7021589005 0.7086895774 0.3067831293  Biso 1.0 Br
Br7 1.0000000000 0.3029326511 0.3030269866 0.8067940012  Biso 1.0 Br
Br8 1.0000000000 0.3056525366 0.3035031526 0.1944216997  Biso 1.0 Br
Br9 1.0000000000 0.2015535002 0.8028307870 0.8078414566  Biso 1.0 Br
Br10 1.0000000000 0.2040107665 0.8018291759 0.1931766285  Biso 1.0 Br
Br11 1.0000000000 0.8058913096 0.2072596765 0.6972249832  Biso 1.0 Br
Br12 1.0000000000 0.8057299028 0.2082075760 0.3097389095  Biso 1.0 Br
Rb13 1.0000000000 0.0266505837 0.0743650969 0.0012082800  Biso 1.0 Rb
Rb14 1.0000000000 0.9778699222 0.9368448800 0.5030990686  Biso 1.0 Rb
Rb15 1.0000000000 0.4785699441 0.5748199840 0.0004551356  Biso 1.0 Rb
Rb16 1.0000000000 0.5267048960 0.4378049261 0.5011103135  Biso 1.0 Rb
Sr17 1.0000000000 0.0021134785 0.5058503081 0.7501976474  Biso 1.0 Sr
Sr18 1.0000000000 0.0036844341 0.5061878152 0.2502383565  Biso 1.0 Sr
Sr19 1.0000000000 0.5024683577 0.0066703892 0.7512809502  Biso 1.0 Sr
Sr20 1.0000000000 0.5038673250 0.0064059970 0.2511270932  Biso 1.0 Sr
