# AFLOW.org Repositories
# Cl12Rb4Sr4
data_Cl12Rb4Sr4
_pd_phase_name Cl12Rb4Sr4
_cell_length_a  7.7177812507
_cell_length_b  8.0656658546
_cell_length_c  11.1019884866
_cell_angle_alpha  89.9803174144
_cell_angle_beta  90.0699514788
_cell_angle_gamma  90.1085032258
_symmetry_space_group_name_H-M  'P1'
_symmetry_Int_Tables_Number  1
loop_
_symmetry_equiv_pos_site_id
_symmetry_equiv_pos_as_xyz
  1  x,y,z
loop_
 _atom_site_label
 _atom_site_occupancy
 _atom_site_fract_x
 _atom_site_fract_y
 _atom_site_fract_z
 _atom_site_thermal_displace_type
 _atom_site_B_iso_or_equiv
 _atom_site_type_symbol
Cl1 1.0000000000 0.1013569240 0.4709046622 0.0008025918  Biso 1.0 Cl
Cl2 1.0000000000 0.8975334240 0.5412744073 0.5011156635  Biso 1.0 Cl
Cl3 1.0000000000 0.3953105501 0.9719546257 0.0023172215  Biso 1.0 Cl
Cl4 1.0000000000 0.6004308646 0.0446995479 0.5022776480  Biso 1.0 Cl
Cl5 1.0000000000 0.6971069742 0.3030365342 0.1963056661  Biso 1.0 Cl
Cl6 1.0000000000 0.6962275044 0.3048873293 0.8054245156  Biso 1.0 Cl
Cl7 1.0000000000 0.2971945801 0.7110273606 0.3077177767  Biso 1.0 Cl
Cl8 1.0000000000 0.2976065041 0.7116914870 0.6985332643  Biso 1.0 Cl
Cl9 1.0000000000 0.1969564186 0.2090961297 0.3039176819  Biso 1.0 Cl
Cl10 1.0000000000 0.1959884641 0.2094509707 0.6970405505  Biso 1.0 Cl
Cl11 1.0000000000 0.7972372279 0.8024820967 0.1976776892  Biso 1.0 Cl
Cl12 1.0000000000 0.7964124938 0.8031667411 0.8055334699  Biso 1.0 Cl
Rb13 1.0000000000 0.9759943997 0.0699019361 1.0003973816  Biso 1.0 Rb
Rb14 1.0000000000 0.0156748905 0.9448541714 0.4992857062  Biso 1.0 Rb
Rb15 1.0000000000 0.5199301002 0.5716398091 0.0005461964  Biso 1.0 Rb
Rb16 1.0000000000 0.4750896569 0.4432415180 0.5031938245  Biso 1.0 Rb
Sr17 1.0000000000 0.9986337326 0.5063002435 0.2503998749  Biso 1.0 Sr
Sr18 1.0000000000 0.9976267412 0.5074410862 0.7514193896  Biso 1.0 Sr
Sr19 1.0000000000 0.4981620335 0.0060873877 0.2527558777  Biso 1.0 Sr
Sr20 1.0000000000 0.4973856958 0.0081130108 0.7523876051  Biso 1.0 Sr
