# AFLOW.org Repositories
# Be8F24Tl8
data_Be8F24Tl8
_pd_phase_name Be8F24Tl8
_cell_length_a  7.7930432536
_cell_length_b  7.8240249857
_cell_length_c  10.6829377293
_cell_angle_alpha  84.2464523606
_cell_angle_beta  89.8880810157
_cell_angle_gamma  89.9455614945
_symmetry_space_group_name_H-M  'P1'
_symmetry_Int_Tables_Number  1
loop_
_symmetry_equiv_pos_site_id
_symmetry_equiv_pos_as_xyz
  1  x,y,z
loop_
 _atom_site_label
 _atom_site_occupancy
 _atom_site_fract_x
 _atom_site_fract_y
 _atom_site_fract_z
 _atom_site_thermal_displace_type
 _atom_site_B_iso_or_equiv
 _atom_site_type_symbol
Be1 1.0000000000 0.7074515643 0.8426705202 0.2658789545  Biso 1.0 Be
Be2 1.0000000000 0.6546887196 0.2174308434 0.2856059293  Biso 1.0 Be
Be3 1.0000000000 0.8315778949 0.7172315481 0.7856757752  Biso 1.0 Be
Be4 1.0000000000 0.3329070270 0.7757222315 0.2174787573  Biso 1.0 Be
Be5 1.0000000000 0.7807177722 0.3418599210 0.7661303984  Biso 1.0 Be
Be6 1.0000000000 0.2802387438 0.1505241892 0.2373245084  Biso 1.0 Be
Be7 1.0000000000 0.2065349314 0.6517823744 0.7369272473  Biso 1.0 Be
Be8 1.0000000000 0.1557724345 0.2764919064 0.7174795870  Biso 1.0 Be
F9 1.0000000000 0.7069720180 0.0467440389 0.2253588251  Biso 1.0 F
F10 1.0000000000 0.7092509676 0.3756957462 0.2000267727  Biso 1.0 F
F11 1.0000000000 0.7749829672 0.8747566367 0.7002366464  Biso 1.0 F
F12 1.0000000000 0.2805902102 0.9463675237 0.2777358756  Biso 1.0 F
F13 1.0000000000 0.7816084192 0.5459652642 0.7254043588  Biso 1.0 F
F14 1.0000000000 0.2780155909 0.6174394448 0.3029766629  Biso 1.0 F
F15 1.0000000000 0.2122859185 0.1189675919 0.8029543535  Biso 1.0 F
F16 1.0000000000 0.2056621540 0.4476827778 0.7777619101  Biso 1.0 F
F17 1.0000000000 0.7601383026 0.7125031132 0.9206597002  Biso 1.0 F
F18 1.0000000000 0.7898381033 0.3075599470 0.9101418823  Biso 1.0 F
F19 1.0000000000 0.6972163077 0.8086025242 0.4098890184  Biso 1.0 F
F20 1.0000000000 0.2615672498 0.7795691113 0.0826787321  Biso 1.0 F
F21 1.0000000000 0.7261060613 0.2138493502 0.4203518259  Biso 1.0 F
F22 1.0000000000 0.2903657414 0.1846333530 0.0933172890  Biso 1.0 F
F23 1.0000000000 0.1974515037 0.6859841150 0.5929179598  Biso 1.0 F
F24 1.0000000000 0.2272101753 0.2810330228 0.5824844549  Biso 1.0 F
F25 1.0000000000 0.8687388076 0.7662477244 0.2124251844  Biso 1.0 F
F26 1.0000000000 0.1189009623 0.2269223007 0.2907527446  Biso 1.0 F
F27 1.0000000000 0.0368388454 0.7199962409 0.7994841248  Biso 1.0 F
F28 1.0000000000 0.5381405022 0.7751862238 0.2029878228  Biso 1.0 F
F29 1.0000000000 0.9504820703 0.2735253572 0.7036622582  Biso 1.0 F
F30 1.0000000000 0.4494583578 0.2179353999 0.3002439166  Biso 1.0 F
F31 1.0000000000 0.3675607604 0.7278301514 0.7904807761  Biso 1.0 F
F32 1.0000000000 0.6197227009 0.2657007841 0.7125519627  Biso 1.0 F
Tl33 1.0000000000 0.9965015422 1.0029732937 0.0052078844  Biso 1.0 Tl
Tl34 1.0000000000 0.9867091400 0.4973248914 0.0786210018  Biso 1.0 Tl
Tl35 1.0000000000 0.9910142954 0.9904195861 0.4981915935  Biso 1.0 Tl
Tl36 1.0000000000 0.4903187273 -0.0034333084 0.9241838946  Biso 1.0 Tl
Tl37 1.0000000000 1.0007941584 0.4960091311 0.4244495558  Biso 1.0 Tl
Tl38 1.0000000000 0.4930365450 0.4906813727 0.9979663944  Biso 1.0 Tl
Tl39 1.0000000000 0.4971009799 0.9970198214 0.5788034915  Biso 1.0 Tl
Tl40 1.0000000000 0.4944687835 0.5028442492 0.5051170458  Biso 1.0 Tl
