# AFLOW.org Repositories
# Ca1F3Tl1
data_Ca1F3Tl1
_pd_phase_name Ca1F3Tl1
_cell_length_a  4.5287708870
_cell_length_b  4.5131725370
_cell_length_c  4.5155372103
_cell_angle_alpha  89.9865688236
_cell_angle_beta  89.6402509897
_cell_angle_gamma  90.0998697004
_symmetry_space_group_name_H-M  'P1'
_symmetry_Int_Tables_Number  1
loop_
_symmetry_equiv_pos_site_id
_symmetry_equiv_pos_as_xyz
  1  x,y,z
loop_
 _atom_site_label
 _atom_site_occupancy
 _atom_site_fract_x
 _atom_site_fract_y
 _atom_site_fract_z
 _atom_site_thermal_displace_type
 _atom_site_B_iso_or_equiv
 _atom_site_type_symbol
Ca1 1.0000000000 0.4958112360 0.4974484993 0.4958557353  Biso 1.0 Ca
F2 1.0000000000 0.9908139105 0.5030562793 0.4810289621  Biso 1.0 F
F3 1.0000000000 0.4622749269 0.9988091959 0.4830450011  Biso 1.0 F
F4 1.0000000000 0.4611625832 0.5017566887 -0.0061671448  Biso 1.0 F
Tl5 1.0000000000 0.0514119218 0.9895087719 0.0170086923  Biso 1.0 Tl
