# AFLOW.org Repositories
# Ca4I12Tl4
data_Ca4I12Tl4
_pd_phase_name Ca4I12Tl4
_cell_length_a  8.1544100390
_cell_length_b  8.7348973269
_cell_length_c  11.8901655545
_cell_angle_alpha  89.8935339870
_cell_angle_beta  89.9715080337
_cell_angle_gamma  89.9974282503
_symmetry_space_group_name_H-M  'P1'
_symmetry_Int_Tables_Number  1
loop_
_symmetry_equiv_pos_site_id
_symmetry_equiv_pos_as_xyz
  1  x,y,z
loop_
 _atom_site_label
 _atom_site_occupancy
 _atom_site_fract_x
 _atom_site_fract_y
 _atom_site_fract_z
 _atom_site_thermal_displace_type
 _atom_site_B_iso_or_equiv
 _atom_site_type_symbol
Ca1 1.0000000000 0.4945003248 0.0005567424 0.2470753238  Biso 1.0 Ca
Ca2 1.0000000000 0.9934607068 0.5006172013 0.2453254193  Biso 1.0 Ca
Ca3 1.0000000000 0.4903209873 0.0013591114 0.7463390305  Biso 1.0 Ca
Ca4 1.0000000000 0.9924579707 0.5019786150 0.7447550736  Biso 1.0 Ca
I5 1.0000000000 0.1812185464 0.1944152002 0.3078615831  Biso 1.0 I
I6 1.0000000000 0.8100561130 0.8102631650 0.1877437420  Biso 1.0 I
I7 1.0000000000 0.1757398302 0.1929993141 0.6874454535  Biso 1.0 I
I8 1.0000000000 0.8045631885 0.8078717178 0.8046012424  Biso 1.0 I
I9 1.0000000000 0.3092329512 0.6911477303 0.3037840006  Biso 1.0 I
I10 1.0000000000 0.6818131886 0.3062412017 0.1836058111  Biso 1.0 I
I11 1.0000000000 0.3060571713 0.6939546808 0.6865131046  Biso 1.0 I
I12 1.0000000000 0.6756951521 0.3116011755 0.8023228094  Biso 1.0 I
I13 1.0000000000 0.3691955498 0.9720957508 0.9968912328  Biso 1.0 I
I14 1.0000000000 0.1146505276 0.4718577076 0.9948372280  Biso 1.0 I
I15 1.0000000000 0.6178997972 0.0307707065 0.4968124501  Biso 1.0 I
I16 1.0000000000 0.8669080360 0.5325055894 0.4950045943  Biso 1.0 I
Tl17 1.0000000000 0.9552366923 0.0934249462 0.9902800737  Biso 1.0 Tl
Tl18 1.0000000000 0.5307982115 0.5956470222 0.9965048777  Biso 1.0 Tl
Tl19 1.0000000000 0.0304638187 0.9066577344 0.4950561440  Biso 1.0 Tl
Tl20 1.0000000000 0.4545747645 0.4059398872 0.4967508419  Biso 1.0 Tl
