# AFLOW.org Repositories
# Br24Ge8Tl8
data_Br24Ge8Tl8
_pd_phase_name Br24Ge8Tl8
_cell_length_a  11.2306233752
_cell_length_b  11.2902925236
_cell_length_c  11.3540394558
_cell_angle_alpha  85.8877279007
_cell_angle_beta  89.3954159729
_cell_angle_gamma  90.8906374244
_symmetry_space_group_name_H-M  'P1'
_symmetry_Int_Tables_Number  1
loop_
_symmetry_equiv_pos_site_id
_symmetry_equiv_pos_as_xyz
  1  x,y,z
loop_
 _atom_site_label
 _atom_site_occupancy
 _atom_site_fract_x
 _atom_site_fract_y
 _atom_site_fract_z
 _atom_site_thermal_displace_type
 _atom_site_B_iso_or_equiv
 _atom_site_type_symbol
Br1 1.0000000000 0.1910746616 0.1905685292 0.0200340209  Biso 1.0 Br
Br2 1.0000000000 0.2987246335 0.3157569140 0.5085910286  Biso 1.0 Br
Br3 1.0000000000 0.7895728737 0.2120560830 0.0095085487  Biso 1.0 Br
Br4 1.0000000000 0.3096007444 0.8035367135 0.9777220799  Biso 1.0 Br
Br5 1.0000000000 0.7106761104 0.3112230948 0.5036953940  Biso 1.0 Br
Br6 1.0000000000 0.1865390103 0.6960645156 0.4900018739  Biso 1.0 Br
Br7 1.0000000000 0.6886330951 0.8274684120 0.0299352983  Biso 1.0 Br
Br8 1.0000000000 0.8024299368 0.6904911676 0.5360111386  Biso 1.0 Br
Br9 1.0000000000 0.0083921252 0.2030976070 0.3089849583  Biso 1.0 Br
Br10 1.0000000000 0.9829706110 0.3232573158 0.7082561433  Biso 1.0 Br
Br11 1.0000000000 0.5144526908 0.2894855172 0.1889608740  Biso 1.0 Br
Br12 1.0000000000 0.9707509951 0.8171968816 0.2139766839  Biso 1.0 Br
Br13 1.0000000000 0.4787740342 0.2011395288 0.7720488144  Biso 1.0 Br
Br14 1.0000000000 0.9819895930 0.7298255322 0.8183076569  Biso 1.0 Br
Br15 1.0000000000 0.4729005504 0.6751498156 0.3083787776  Biso 1.0 Br
Br16 1.0000000000 0.4881642321 0.7973807724 0.6829229839  Biso 1.0 Br
Br17 1.0000000000 0.3022442757 0.9673066409 0.3026734356  Biso 1.0 Br
Br18 1.0000000000 0.2045320071 0.0290730359 0.6798507368  Biso 1.0 Br
Br19 1.0000000000 0.7027754174 0.9866974289 0.3173417299  Biso 1.0 Br
Br20 1.0000000000 0.1889473501 0.4721309859 0.1883419447  Biso 1.0 Br
Br21 1.0000000000 0.8009351674 0.0326810123 0.6948703929  Biso 1.0 Br
Br22 1.0000000000 0.3071515254 0.5267036366 0.8084016104  Biso 1.0 Br
Br23 1.0000000000 0.7934241707 0.4897956882 0.1914296096  Biso 1.0 Br
Br24 1.0000000000 0.7041106394 0.5221550018 0.8198748834  Biso 1.0 Br
Ge25 1.0000000000 0.2219931096 0.2486495275 0.2328279973  Biso 1.0 Ge
Ge26 1.0000000000 0.2560857142 0.2429366859 0.7242112571  Biso 1.0 Ge
Ge27 1.0000000000 0.7411853484 0.2651762332 0.2233868614  Biso 1.0 Ge
Ge28 1.0000000000 0.2579555960 0.7454310066 0.2780707360  Biso 1.0 Ge
Ge29 1.0000000000 0.7622612171 0.2527333666 0.7206874242  Biso 1.0 Ge
Ge30 1.0000000000 0.2747678294 0.7510688534 0.7636776811  Biso 1.0 Ge
Ge31 1.0000000000 0.7431959095 0.7813764391 0.2477114920  Biso 1.0 Ge
Ge32 1.0000000000 0.7623891629 0.7371945410 0.7506016652  Biso 1.0 Ge
Tl33 1.0000000000 0.9695960989 0.9857529712 0.9628539064  Biso 1.0 Tl
Tl34 1.0000000000 0.9917636921 0.9430277288 0.4755612472  Biso 1.0 Tl
Tl35 1.0000000000 0.4748852733 0.0473925611 0.0351436901  Biso 1.0 Tl
Tl36 1.0000000000 0.9831533064 0.4631167642 0.9666892498  Biso 1.0 Tl
Tl37 1.0000000000 0.4792831369 0.0543051628 0.5170900051  Biso 1.0 Tl
Tl38 1.0000000000 0.9941115727 0.4630819905 0.4407716752  Biso 1.0 Tl
Tl39 1.0000000000 0.5006069755 0.5631139083 0.0398210160  Biso 1.0 Tl
Tl40 1.0000000000 0.5096698680 0.5230375507 0.5737562651  Biso 1.0 Tl
