# AFLOW.org Repositories
# Ge8I24Tl8
data_Ge8I24Tl8
_pd_phase_name Ge8I24Tl8
_cell_length_a  11.8150854930
_cell_length_b  11.8441034192
_cell_length_c  11.8217589574
_cell_angle_alpha  89.7398250944
_cell_angle_beta  89.6805932340
_cell_angle_gamma  94.1306903453
_symmetry_space_group_name_H-M  'P1'
_symmetry_Int_Tables_Number  1
loop_
_symmetry_equiv_pos_site_id
_symmetry_equiv_pos_as_xyz
  1  x,y,z
loop_
 _atom_site_label
 _atom_site_occupancy
 _atom_site_fract_x
 _atom_site_fract_y
 _atom_site_fract_z
 _atom_site_thermal_displace_type
 _atom_site_B_iso_or_equiv
 _atom_site_type_symbol
Ge1 1.0000000000 0.2450758016 0.2338083008 0.2727126919  Biso 1.0 Ge
Ge2 1.0000000000 0.2192055172 0.7348779874 0.2525917685  Biso 1.0 Ge
Ge3 1.0000000000 0.2649384514 0.2366232524 0.7627201312  Biso 1.0 Ge
Ge4 1.0000000000 0.7377277411 0.2468412080 0.2223419310  Biso 1.0 Ge
Ge5 1.0000000000 0.2413517411 0.7502405419 0.7727912096  Biso 1.0 Ge
Ge6 1.0000000000 0.7357671930 0.7267616855 0.2404501242  Biso 1.0 Ge
Ge7 1.0000000000 0.7486721932 0.2212478542 0.7315784405  Biso 1.0 Ge
Ge8 1.0000000000 0.7466228066 0.7349233900 0.7192760305  Biso 1.0 Ge
I9 1.0000000000 0.3080253743 0.0127672021 0.3055539122  Biso 1.0 I
I10 1.0000000000 0.1824689566 0.5063737386 0.1918059496  Biso 1.0 I
I11 1.0000000000 0.3175700976 0.0180655643 0.6981967450  Biso 1.0 I
I12 1.0000000000 0.6892424899 0.0086688621 0.1936357655  Biso 1.0 I
I13 1.0000000000 0.1918972756 0.5157532846 0.8054031149  Biso 1.0 I
I14 1.0000000000 0.8044927070 0.5096867185 0.2963602834  Biso 1.0 I
I15 1.0000000000 0.6901726550 0.9988672147 0.8008512410  Biso 1.0 I
I16 1.0000000000 0.8046586388 0.5099095984 0.6904740855  Biso 1.0 I
I17 1.0000000000 0.2035784952 0.1834266099 0.9897752085  Biso 1.0 I
I18 1.0000000000 0.3187861149 0.7974059043 0.9914452933  Biso 1.0 I
I19 1.0000000000 0.2887086331 0.3192781120 0.4919273186  Biso 1.0 I
I20 1.0000000000 0.8154908400 0.2917963090 0.0014783837  Biso 1.0 I
I21 1.0000000000 0.1755617068 0.7010472035 0.4855577796  Biso 1.0 I
I22 1.0000000000 0.7021398128 0.6897079479 0.0069862495  Biso 1.0 I
I23 1.0000000000 0.6832653259 0.1998420152 0.5039150932  Biso 1.0 I
I24 1.0000000000 0.7983584964 0.8173125673 0.5013742111  Biso 1.0 I
I25 1.0000000000 0.0104013446 0.1837861546 0.3060801573  Biso 1.0 I
I26 1.0000000000 0.0044229682 0.8058236919 0.1936978629  Biso 1.0 I
I27 1.0000000000 0.9817821004 0.1944746270 0.6967590941  Biso 1.0 I
I28 1.0000000000 0.5140868232 0.3080222067 0.1919577139  Biso 1.0 I
I29 1.0000000000 0.0169744248 0.8120738017 0.8021375490  Biso 1.0 I
I30 1.0000000000 0.5019223599 0.6875725257 0.2994314744  Biso 1.0 I
I31 1.0000000000 0.4903523907 0.3114474155 0.8051924408  Biso 1.0 I
I32 1.0000000000 0.5117083997 0.6910967209 0.6845612747  Biso 1.0 I
Tl33 1.0000000000 0.9325357978 0.0262842569 0.9964259233  Biso 1.0 Tl
Tl34 1.0000000000 0.9660544604 0.5684252628 0.9954170699  Biso 1.0 Tl
Tl35 1.0000000000 0.0731573774 0.9726187677 0.5138465202  Biso 1.0 Tl
Tl36 1.0000000000 0.4707682845 0.0707730647 0.9977515074  Biso 1.0 Tl
Tl37 1.0000000000 0.0200515577 0.4313842948 0.4921103083  Biso 1.0 Tl
Tl38 1.0000000000 0.4346368580 0.5336298201 0.0050061261  Biso 1.0 Tl
Tl39 1.0000000000 0.5335367396 0.9336154490 0.4922353938  Biso 1.0 Tl
Tl40 1.0000000000 0.5654362242 0.4674973041 0.4917280813  Biso 1.0 Tl
