# AFLOW.org Repositories
# Cl12Mg4Tl4
data_Cl12Mg4Tl4
_pd_phase_name Cl12Mg4Tl4
_cell_length_a  7.1036987801
_cell_length_b  7.1024258913
_cell_length_c  10.0894710184
_cell_angle_alpha  90.0119356948
_cell_angle_beta  90.0088158647
_cell_angle_gamma  89.5150207971
_symmetry_space_group_name_H-M  'P1'
_symmetry_Int_Tables_Number  1
loop_
_symmetry_equiv_pos_site_id
_symmetry_equiv_pos_as_xyz
  1  x,y,z
loop_
 _atom_site_label
 _atom_site_occupancy
 _atom_site_fract_x
 _atom_site_fract_y
 _atom_site_fract_z
 _atom_site_thermal_displace_type
 _atom_site_B_iso_or_equiv
 _atom_site_type_symbol
Cl1 1.0000000000 0.7295503061 0.7146478294 0.7317918513  Biso 1.0 Cl
Cl2 1.0000000000 0.2777501998 0.2624240369 0.7772844391  Biso 1.0 Cl
Cl3 1.0000000000 0.7270246697 0.7121184367 0.2786016901  Biso 1.0 Cl
Cl4 1.0000000000 0.2791461574 0.2636732208 0.2323262784  Biso 1.0 Cl
Cl5 1.0000000000 0.5355307664 0.9727074121 0.0045735325  Biso 1.0 Cl
Cl6 1.0000000000 0.9705435874 0.5003094390 0.0045670334  Biso 1.0 Cl
Cl7 1.0000000000 0.4727239312 0.0055683949 0.5049282402  Biso 1.0 Cl
Cl8 1.0000000000 0.0330451150 0.4733503251 0.5049013449  Biso 1.0 Cl
Cl9 1.0000000000 0.7793130465 0.2126600898 0.7463356536  Biso 1.0 Cl
Cl10 1.0000000000 0.2301960633 0.7614778979 0.7623204908  Biso 1.0 Cl
Cl11 1.0000000000 0.7810759835 0.2106159950 0.2625252931  Biso 1.0 Cl
Cl12 1.0000000000 0.2282884654 0.7629574277 0.2463556479  Biso 1.0 Cl
Mg13 1.0000000000 0.5040739126 0.9889682517 0.7545693809  Biso 1.0 Mg
Mg14 1.0000000000 0.0021647355 0.4884724602 0.7549385550  Biso 1.0 Mg
Mg15 1.0000000000 0.5041047168 0.9889497651 0.2549977246  Biso 1.0 Mg
Mg16 1.0000000000 0.0022460901 0.4884125252 0.2544739283  Biso 1.0 Mg
Tl17 1.0000000000 0.0165330859 0.0112953944 0.0018147786  Biso 1.0 Tl
Tl18 1.0000000000 0.4981518871 0.5134848381 0.0054045541  Biso 1.0 Tl
Tl19 1.0000000000 0.9914266454 0.9864112803 0.5048128188  Biso 1.0 Tl
Tl20 1.0000000000 0.4895913782 0.4895800152 0.5075655503  Biso 1.0 Tl
