# AFLOW.org Repositories
# F3Mg1Tl1
data_F3Mg1Tl1
_pd_phase_name F3Mg1Tl1
_cell_length_a  4.1449727610
_cell_length_b  4.1449727610
_cell_length_c  4.1449727610
_cell_angle_alpha  90.0000000000
_cell_angle_beta  90.0000000000
_cell_angle_gamma  90.0000000000
_symmetry_space_group_name_H-M  'P1'
_symmetry_Int_Tables_Number  1
loop_
_symmetry_equiv_pos_site_id
_symmetry_equiv_pos_as_xyz
  1  x,y,z
loop_
 _atom_site_label
 _atom_site_occupancy
 _atom_site_fract_x
 _atom_site_fract_y
 _atom_site_fract_z
 _atom_site_thermal_displace_type
 _atom_site_B_iso_or_equiv
 _atom_site_type_symbol
F1 1.0000000000 0.5000052544 0.9999999780 0.4999947815  Biso 1.0 F
F2 1.0000000000 0.0000083885 0.5000115633 0.4999948394  Biso 1.0 F
F3 1.0000000000 0.4999968611 0.4999947694 0.9999999780  Biso 1.0 F
Mg4 1.0000000000 0.5000083787 0.4999999975 0.4999916500  Biso 1.0 Mg
Tl5 1.0000000000 0.0000000000 0.0000000000 0.9999999901  Biso 1.0 Tl
