# AFLOW.org Repositories
# F6Pb2Tl2
data_F6Pb2Tl2
_pd_phase_name F6Pb2Tl2
_cell_length_a  6.5893768550
_cell_length_b  6.6052525206
_cell_length_c  6.5868474444
_cell_angle_alpha  62.8293249098
_cell_angle_beta  62.7983555675
_cell_angle_gamma  62.6330632336
_symmetry_space_group_name_H-M  'P1'
_symmetry_Int_Tables_Number  1
loop_
_symmetry_equiv_pos_site_id
_symmetry_equiv_pos_as_xyz
  1  x,y,z
loop_
 _atom_site_label
 _atom_site_occupancy
 _atom_site_fract_x
 _atom_site_fract_y
 _atom_site_fract_z
 _atom_site_thermal_displace_type
 _atom_site_B_iso_or_equiv
 _atom_site_type_symbol
F1 1.0000000000 0.5721542793 0.9036912045 0.0684600602  Biso 1.0 F
F2 1.0000000000 0.0705193496 0.5754386728 0.3966641719  Biso 1.0 F
F3 1.0000000000 0.0804394273 0.5656585059 0.8970898850  Biso 1.0 F
F4 1.0000000000 0.4092871902 0.0694526189 0.5682798025  Biso 1.0 F
F5 1.0000000000 0.9095545128 0.0721526852 0.5600088097  Biso 1.0 F
F6 1.0000000000 0.5787739565 0.4034145136 0.0590159809  Biso 1.0 F
Pb7 1.0000000000 0.2519870007 0.2466019156 0.2394152277  Biso 1.0 Pb
Pb8 1.0000000000 0.7512601614 0.7465839870 0.7401874688  Biso 1.0 Pb
Tl9 1.0000000000 0.9873445048 0.9819291872 0.9767415261  Biso 1.0 Tl
Tl10 1.0000000000 0.4875700424 0.4816924701 0.4760884771  Biso 1.0 Tl
