# AFLOW.org Repositories
# F6Sr2Tl2
data_F6Sr2Tl2
_pd_phase_name F6Sr2Tl2
_cell_length_a  6.6530420429
_cell_length_b  6.7135553188
_cell_length_c  6.6512001276
_cell_angle_alpha  60.3635325395
_cell_angle_beta  60.0132761742
_cell_angle_gamma  60.3456122024
_symmetry_space_group_name_H-M  'P1'
_symmetry_Int_Tables_Number  1
loop_
_symmetry_equiv_pos_site_id
_symmetry_equiv_pos_as_xyz
  1  x,y,z
loop_
 _atom_site_label
 _atom_site_occupancy
 _atom_site_fract_x
 _atom_site_fract_y
 _atom_site_fract_z
 _atom_site_thermal_displace_type
 _atom_site_B_iso_or_equiv
 _atom_site_type_symbol
F1 1.0000000000 0.0735710175 0.5349264417 0.9232663203  Biso 1.0 F
F2 1.0000000000 0.4157095577 0.0358459034 0.5813962467  Biso 1.0 F
F3 1.0000000000 0.9587213598 0.0352432538 0.4247008749  Biso 1.0 F
F4 1.0000000000 0.4559811160 0.5385248970 0.0821657948  Biso 1.0 F
F5 1.0000000000 0.5746266242 0.0368843141 0.9657792886  Biso 1.0 F
F6 1.0000000000 0.9153226086 0.5369697852 0.4650869815  Biso 1.0 F
Sr7 1.0000000000 0.2456458364 0.2458271478 0.2541754968  Biso 1.0 Sr
Sr8 1.0000000000 0.7457714115 0.7460176529 0.7540586835  Biso 1.0 Sr
Tl9 1.0000000000 0.0213862402 0.9229780483 0.0276271731  Biso 1.0 Tl
Tl10 1.0000000000 0.5198591811 0.4232275947 0.5289921091  Biso 1.0 Tl
